82
XYZ file generated by PYTHON : coordinates in Angstrom
C  0.0  5.430092783735384e-16  5.0
C  0.0  -1.5450849718747366  4.755282581475767
C  0.0  -2.938926261462365  4.045084971874737
C  0.0  -4.045084971874737  2.9389262614623664
C  0.0  -4.755282581475767  1.5450849718747377
C  0.0  -5.0  7.307471888670266e-16
C  0.0  -4.755282581475768  -1.5450849718747364
C  0.0  -4.045084971874737  -2.9389262614623646
C  0.0  -2.9389262614623664  -4.045084971874736
C  0.0  -1.5450849718747375  -4.755282581475767
C  0.0  -6.816375207738149e-16  -5.0
C  0.0  1.5450849718747364  -4.755282581475768
C  0.0  2.938926261462365  -4.045084971874738
C  0.0  4.045084971874736  -2.938926261462367
C  0.0  4.755282581475767  -1.5450849718747377
C  0.0  5.0  -1.106223009854003e-15
C  0.0  4.755282581475768  1.5450849718747361
C  0.0  4.045084971874738  2.938926261462364
C  0.0  2.9389262614623677  4.045084971874736
C  0.0  1.5450849718747386  4.755282581475767
C  0.0  2.3684757858670006e-16  1.1842378929335e-16
C  1.0  2.0623140860801622e-16  -0.4999999999999999
C  2.0  2.674637485653839e-16  0.5000000000000001
C  3.0  2.0623140860801622e-16  -0.4999999999999999
C  4.0  2.674637485653839e-16  0.5000000000000001
C  5.0  2.0623140860801622e-16  -0.4999999999999999
C  6.0  2.674637485653839e-16  0.5000000000000001
C  7.0  2.0623140860801622e-16  -0.4999999999999999
C  8.0  2.674637485653839e-16  0.5000000000000001
C  9.0  2.0623140860801622e-16  -0.4999999999999999
C  10.0  2.674637485653839e-16  0.5000000000000001
C  11.0  2.0623140860801622e-16  -0.4999999999999999
C  12.0  2.674637485653839e-16  0.5000000000000001
C  13.0  2.0623140860801622e-16  -0.4999999999999999
C  14.0  2.674637485653839e-16  0.5000000000000001
C  15.0  2.0623140860801622e-16  -0.4999999999999999
C  16.0  2.674637485653839e-16  0.5000000000000001
C  17.0  2.0623140860801622e-16  -0.4999999999999999
C  -1.3322676295501878e-15  4.933571573599126  0.8123247676727816
C  -1.3322676295501878e-15  4.441083235517413  2.297124222850427
C  -1.3322676295501878e-15  3.5138707274968746  3.557065154089898
C  -1.3322676295501878e-15  2.242696070091976  4.468815764516816
C  -1.3322676295501878e-15  0.7519906955641366  4.943127551842554
C  -1.3322676295501878e-15  -0.8123247676727811  4.933571573599126
C  -1.3322676295501878e-15  -2.297124222850427  4.441083235517414
C  -1.3322676295501878e-15  -3.557065154089897  3.5138707274968746
C  -1.3322676295501878e-15  -4.468815764516815  2.2426960700919762
C  -1.3322676295501878e-15  -4.943127551842554  0.7519906955641368
C  -1.3322676295501878e-15  -4.933571573599126  -0.8123247676727808
C  -1.3322676295501878e-15  -4.441083235517414  -2.2971242228504267
C  -1.3322676295501878e-15  -3.5138707274968755  -3.557065154089897
C  -1.3322676295501878e-15  -2.2426960700919762  -4.468815764516815
C  -1.3322676295501878e-15  -0.7519906955641368  -4.943127551842554
C  -1.3322676295501878e-15  0.8123247676727807  -4.933571573599127
C  -1.3322676295501878e-15  2.2971242228504263  -4.441083235517414
C  -1.3322676295501878e-15  3.557065154089897  -3.5138707274968755
C  -1.3322676295501878e-15  4.468815764516815  -2.2426960700919767
C  -1.3322676295501878e-15  4.943127551842554  -0.7519906955641372
C  -1.3322676295501878e-15  5.921189464667503e-17  1.258252761241844e-16
C  0.9999999999999987  -0.4933571573599126  -0.08123247676727803
C  1.9999999999999991  0.4933571573599127  0.08123247676727828
C  2.999999999999999  -0.4933571573599126  -0.08123247676727803
C  3.999999999999999  0.4933571573599127  0.08123247676727828
C  4.999999999999999  -0.4933571573599126  -0.08123247676727803
C  5.999999999999999  0.4933571573599127  0.08123247676727828
C  6.999999999999999  -0.4933571573599126  -0.08123247676727803
C  7.999999999999999  0.4933571573599127  0.08123247676727828
C  9.0  -0.4933571573599126  -0.08123247676727803
C  10.0  0.4933571573599127  0.08123247676727828
C  11.0  -0.4933571573599126  -0.08123247676727803
C  12.0  0.4933571573599127  0.08123247676727828
C  13.0  -0.4933571573599126  -0.08123247676727803
C  13.999999999999996  0.4933571573599127  0.08123247676727828
C  14.999999999999996  -0.4933571573599126  -0.08123247676727803
C  15.999999999999996  0.4933571573599127  0.08123247676727828
C  16.999999999999996  -0.4933571573599126  -0.08123247676727803
B  0.0  -1.4802973661668753e-16  -1.1842378929335003e-16
B  -1.3322676295501878e-15  -1.7763568394002506e-16  -1.554312234475219e-16
O  0.0  0.0  0.0
H  1.0  0.0  0.0
HE  0.0  1.5  0.0
LI  0.0  0.0  1.5

