44
XYZ file generated by PYTHON : coordinates in Angstrom
C  -1.2389050050939394  -5.10137355038681  -0.7287676500552585
C  -0.8213385377150583  -5.559750735248866  0.20157024647409272
C  -0.07604329616348582  -4.574508179987781  0.8899248863387408
C  0.23228024649116485  -5.514091944890885  1.9009238684229928
C  0.9775754880427376  -4.5288493896298  2.589278508287641
C  1.2858990306973879  -5.468433154532904  3.600277490371892
C  2.0311942722489604  -4.483190599271818  4.288632130236541
C  2.3395178149036107  -5.422774364174923  5.299631112320794
C  3.084813056455184  -4.437531808913837  5.987985752185441
S  3.393136599109834  -5.377115573816941  6.998984734269694
S  4.138431840661406  -4.391873018555856  7.687339374134341
S  4.446755383316058  -5.33145678345896  8.698338356218594
S  5.192050624867631  -4.346214228197875  9.386692996083243
S  5.50037416752228  -5.285797993100979  10.397691978167492
S  6.245669409073853  -4.300555437839893  11.086046618032142
S  6.553992951728504  -5.240139202742998  12.097045600116394
S  7.299288193280076  -4.254896647481912  12.785400239981044
S  7.607611735934728  -5.194480412385016  13.796399222065295
C  -1.2389050050939394  -5.10137355038681  -0.7287676500552585
C  -0.7570144595939227  -4.127545692715219  -0.4652514156778351
C  -1.0653380022485734  -3.1879619278121147  -1.4762503977620869
C  -0.3200427606970009  -2.202719372551029  -0.7878957578974386
C  -0.6283663033516516  -1.2631356076479245  -1.7988947399816904
C  0.11692893819992078  -0.2778930523868386  -1.1105401001170419
C  -0.19139460445472967  0.6616907125162665  -2.121539082201294
C  0.5539006370968429  1.646933267777352  -1.4331844423366453
C  0.24557709444219222  2.586517032680457  -2.4441834244208973
S  0.9908723359937643  3.571759587941542  -1.7558287845562486
S  0.6825487933391139  4.511343352844647  -2.7668277666405006
S  1.4278440348906862  5.4965859081057316  -2.078473126775852
S  1.119520492236036  6.436169673008837  -3.089472108860104
S  1.8648157337876081  7.421412228269923  -2.4011174689954555
S  1.556492191132958  8.360995993173027  -3.4121164510797075
S  2.30178743268453  9.346238548434112  -2.7237618112150592
S  1.9934638900298798  10.285822313337217  -3.7347607932993108
S  2.7387591315814523  11.271064868598305  -3.0464061534346625
B  -2.234937711370226  -4.565822614725417  -0.1256052782685272
B  -2.234937711370226  -4.565822614725417  -0.1256052782685272
N  -1.2389050050939392  -5.1013735503868105  -0.7287676500552585
N  -1.2389050050939392  -5.1013735503868105  -0.7287676500552585
O  0.0  0.0  0.0
H  1.0  0.0  0.0
HE  0.0  1.5  0.0
LI  0.0  0.0  1.5

