136
XYZ file generated by PYTHON : coordinates in Angstrom
C  -1.2518542802264871  0.8355057613474273  2.1631731406044175
C  -0.9325156439001436  -0.27209378114382865  1.342315852050608
H  -0.9546696514679945  -0.18143792539629278  0.2788395296161763
C  -0.6559348655926461  -1.5185008985094548  1.917949413511574
O  -0.34387681716849705  -2.648999593409221  1.219456680413282
C  -0.26788841322542745  -2.5419492176486633  -0.20231278788507834
C  0.3305864129970433  -3.814738605960427  -0.7774081768005778
H  0.9955312406259615  -3.5350312525243526  -1.6238856429195514
H  0.9862188235855722  -4.287360661208306  -0.005079374807679726
O  -0.6771333668248498  -4.707355153842507  -1.2353357687049966
C  -0.08738947220978766  -5.847589632055687  -1.858059891368912
H  0.5264337537933403  -6.3873414289815855  -1.1711387598274887
C  -1.1497425837222819  -6.777863715522523  -2.4059424658986686
O  -1.5690393347178175  -7.678634375490358  -1.387585285585652
C  -2.4567844411586135  -8.707641666937214  -1.8316468262692627
H  -2.3960392202495537  -9.516391615028532  -1.0985752231283294
H  -2.0953140824804506  -9.107975343149704  -2.801491857430659
C  -3.894229663928637  -8.266144350312329  -1.9886906699952152
H  -4.457472856838571  -9.055357747623148  -2.448199637241356
O  -4.426985639168942  -8.010569804339486  -0.6617352494378111
C  -5.667453796038523  -7.4211513031087595  -0.5912031671684934
C  -6.137451158056679  -7.178082882193578  0.7332645573935281
O  -5.341462615792108  -7.581808652346954  1.7656576376843347
C  -5.740010694272671  -7.154909291196228  3.0921868318512584
H  -5.71993859829379  -6.032208203509661  3.1630630137409566
C  -4.8302113379707725  -7.734339880997255  4.144723116061222
H  -4.726320662670356  -8.840015666165142  3.977959685576956
O  -3.574006002704197  -7.084264090882645  4.17479311373644
C  -2.876398598258802  -7.341726705170013  5.381509505030888
C  -1.5202901373134055  -6.672819936097284  5.3809040093537845
H  -0.9376497584561924  -7.019011170738856  4.506126885599858
H  -1.0046444508182437  -7.014834788960993  6.27884825159539
O  -1.645519290292583  -5.260638937632371  5.363470019744014
C  -0.39228054934931167  -4.611359140647468  5.507765975577707
H  0.32854800920131044  -5.048142316798362  4.7795014812844645
H  -0.006363317464436413  -4.763663044187075  6.535511100016953
C  -0.5247304393458876  -3.136418632678582  5.238607147007382
H  0.27972963483311974  -2.574774005889744  5.733902750342336
O  -0.4355590919647486  -2.9178202623364964  3.810571857637155
H  -1.4984662541886538  -2.7515124496807215  5.645908060948287
H  -2.7057777473650746  -8.457395017683284  5.502137231371982
H  -3.464374670701117  -6.956797443243736  6.247534881298439
H  -5.32626025096904  -7.614349041501441  5.103101615801066
H  -6.756345831407002  -7.545897899615912  3.290006133749024
C  -7.358240873029772  -6.5058360604004735  0.8874329123414628
H  -7.756000550017038  -6.2199985244626586  1.8975041112305036
C  -8.124329932638243  -6.135773899158529  -0.2171048770812456
C  -7.689804544019119  -6.430841374282908  -1.505830859970816
H  -8.258157091773665  -6.14449098954257  -2.353683391542621
H  -9.05363197303809  -5.59293064196385  -0.07581585938374524
C  -6.44059125595199  -7.08100404808643  -1.6903766316705982
H  -6.11680882823158  -7.305921371675108  -2.705629680080942
H  -3.9444471374210037  -7.344759753200607  -2.603482657859267
H  -0.7002121114885725  -7.355017929524108  -3.2609110672049404
H  -2.000133256058739  -6.177772684693968  -2.833942872141003
H  0.567098537872103  -5.508429013022739  -2.70327276163064
H  -1.3016206250310827  -2.3694780200893097  -0.615326322177782
H  0.35485805520293945  -1.6955059568469912  -0.4859289337264776
C  -0.6837100881574736  -1.6653519433670696  3.329119937303377
C  -0.9983793952377673  -0.5473826988048796  4.132776147129528
H  -1.0126972005204218  -0.6476336230693125  5.244317872689548
H  -1.498204602787733  1.7914845919401827  1.7255389655747493
C  -1.280163664617032  0.6890041642407123  3.544556726767571
H  -1.492294904844245  1.563626926826914  4.172870363561779
C  3.128449181694415  0.5273619206616642  11.069382113096559
C  3.580722851923161  -0.4643442553403947  10.166870070491743
H  3.4855339014589983  -0.3208145229803252  9.113290717880146
C  4.09050320277461  -1.676054187376462  10.649844873892526
O  4.54610846994705  -2.6981991939812393  9.868216414235938
C  4.525180847891933  -2.502488155159711  8.454030547601635
C  5.2931048800352904  -3.6232756351730417  7.773569118514743
H  5.8552328587137445  -3.1900204059714703  6.917289975968206
H  6.059188510527913  -4.0203985094805805  8.484291664309938
O  4.422999965600481  -4.646238733399691  7.30620943564991
C  5.157823139638052  -5.635426305461966  6.587001044664197
H  5.889129508947142  -6.1009898747115985  7.21022905528252
C  4.235196292172637  -6.699729131575172  6.030046366034808
O  4.026957841117394  -7.712362217582726  7.007522644301606
C  3.2982795156754054  -8.85016048750307  6.539996145831189
H  3.5318974621294412  -9.675969191496161  7.217213300986366
H  3.6670763091932477  -9.130521300751434  5.531574608741241
C  1.8012403853038004  -8.64865175987602  6.475968864693291
H  1.3516700532695438  -9.495044258843944  5.993521534843369
O  1.3072855867106776  -8.559046177883776  7.8390306617050065
C  -0.007708450686240154  -8.191252719809109  8.002336651300517
C  -0.43793373152401605  -8.10327211314717  9.359303913815047
O  0.46927068487395696  -8.42318101526877  10.327325695773553
C  0.07916366092341098  -8.142365748672226  11.694703710186301
H  -0.08255848139667621  -7.03782713752614  11.835147505562697
C  1.1285611139433653  -8.617183692175086  12.666619453872956
H  1.4042776279869629  -9.678897327240582  12.426064227225242
O  2.2599118200031825  -7.767833932524168  12.680942431371124
C  3.055658562626962  -7.969828934990792  13.836404537237676
C  4.280594201909242  -7.083478952849016  13.816829579832639
H  4.863467625050394  -7.278561711762661  12.89663694346182
H  4.894159513569745  -7.382433088956219  14.667319161536401
O  3.923138903108602  -5.713620530630323  13.893998677344626
C  5.057972755072462  -4.871785148859728  14.022288341307947
H  5.799930765668087  -5.140801027371776  13.236240445146272
H  5.519592156759435  -5.012901110317318  15.019976891465655
C  4.669219844958478  -3.4276342522395926  13.852764558097041
H  5.395868366353446  -2.766637354970979  14.345698083623125
O  4.642511131139245  -3.119573084766878  12.438760836002162
H  3.6691523948408413  -3.23467600240277  14.326937997198913
H  3.414520045879634  -9.045842034591606  13.878743077520424
H  2.460653801535125  -7.73703714134701  14.75055095104747
H  0.6728994711607288  -8.634748270857294  13.652020705793012
H  -0.8462417430003578  -8.708821852812617  11.913093269373357
C  -1.7426330392554508  -7.655209578078688  9.610323594986644
H  -2.1260507621084037  -7.495837317800735  10.65327662215005
C  -2.618797638632242  -7.359472631537875  8.566907363587461
C  -2.2129542044454844  -7.506546233621839  7.243898576880769
H  -2.8664800009166727  -7.273972643954771  6.442219940887007
H  -3.6157965960923746  -6.989080542923656  8.78380930043999
C  -0.8855797694695445  -7.926437268664952  6.962702717370304
H  -0.5853543692094167  -8.03799960451258  5.9217511481240805
H  1.5658870013624488  -7.716664987245823  5.923293553963543
H  4.726215065473267  -7.145594113745953  5.121057409354782
H  3.2751878685825933  -6.228665662872073  5.679417040805305
H  5.699906364288557  -5.145480091892578  5.7361968590483965
H  3.4560596888218624  -2.4839487236998163  8.099679004736457
H  4.983085996927155  -1.549219409684409  8.196505695858203
C  4.164898247561183  -1.9022574500502878  12.048786045225352
C  3.7145657767459204  -0.8986214329595086  12.934591170027112
H  3.778063339504211  -1.060347978611409  14.037130438706548
H  2.7039722127254273  1.450766164233829  10.704345699996118
C  3.200624678427208  0.3030380277769309  12.438671797594614
H  2.881817810019128  1.0939590414769107  13.129720852900709
B  -2.716358220619782  -5.120495735724433  1.4750034572159207
B  2.6319506954452354  -5.543513143211214  10.07425983433705
N  -2.652950143020726  -5.178522259690351  1.4698954658790337
N  2.7036921949342236  -5.589689984505409  10.062657681819754
O  0.0  0.0  0.0
H  1.0  0.0  0.0
HE  0.0  1.5  0.0
LI  0.0  0.0  1.5

