82
XYZ file generated by PYTHON : coordinates in Angstrom
SI  0.0  5.0  0.0
SI  0.0  4.755282581475767  1.545084971874737
SI  0.0  4.045084971874737  2.938926261462366
SI  0.0  2.9389262614623664  4.045084971874737
SI  0.0  1.5450849718747375  4.755282581475767
SI  0.0  6.170241466818822e-16  5.0
SI  0.0  -1.5450849718747366  4.755282581475768
SI  0.0  -2.9389262614623646  4.045084971874737
SI  0.0  -4.045084971874736  2.9389262614623664
SI  0.0  -4.755282581475767  1.5450849718747375
C  0.0  -5.0  6.123233995736766e-16
C  0.0  -4.755282581475768  -1.5450849718747364
C  0.0  -4.045084971874738  -2.938926261462365
C  0.0  -2.938926261462366  -4.045084971874736
C  0.0  -1.5450849718747375  -4.755282581475767
C  0.0  -6.07622652465471e-16  -5.0
C  0.0  1.5450849718747364  -4.755282581475768
C  0.0  2.938926261462365  -4.045084971874738
C  0.0  4.045084971874736  -2.938926261462367
C  0.0  4.755282581475767  -1.5450849718747381
C  0.0  3.108624468950438e-16  0.0
C  1.0  -0.49999999999999967  0.0
C  2.0  0.5000000000000003  0.0
C  3.0  -0.49999999999999967  0.0
C  4.0  0.5000000000000003  0.0
C  5.0  -0.49999999999999967  0.0
C  6.0  0.5000000000000003  0.0
C  7.0  -0.49999999999999967  0.0
C  8.0  0.5000000000000003  0.0
S  9.0  -0.49999999999999967  0.0
S  10.0  0.5000000000000003  0.0
S  11.0  -0.49999999999999967  0.0
S  12.0  0.5000000000000003  0.0
S  13.0  -0.49999999999999967  0.0
S  14.0  0.5000000000000003  0.0
S  15.0  -0.49999999999999967  0.0
S  16.0  0.5000000000000003  0.0
S  17.0  -0.49999999999999967  0.0
SI  0.0  5.0  4.4408920985006264e-17
SI  1.338082836649087  4.755282581475767  0.7725424859373687
SI  2.545184802275636  4.045084971874737  1.4694631307311832
SI  3.5031463461101833  2.9389262614623664  2.022542485937369
SI  4.1181955177316585  1.5450849718747375  2.377641290737884
SI  4.330127018922193  6.170241466818822e-16  2.5000000000000004
SI  4.118195517731659  -1.5450849718747366  2.3776412907378845
SI  3.5031463461101833  -2.9389262614623646  2.022542485937369
SI  2.545184802275637  -4.045084971874736  1.4694631307311834
SI  1.3380828366490878  -4.755282581475767  0.772542485937369
C  4.440892098500626e-16  -5.0  3.505706207718446e-16
C  -1.3380828366490864  -4.755282581475768  -0.7725424859373684
C  -2.545184802275635  -4.045084971874738  -1.4694631307311827
C  -3.503146346110183  -2.938926261462366  -2.0225424859373686
C  -4.1181955177316585  -1.5450849718747375  -2.377641290737884
C  -4.330127018922193  -6.07622652465471e-16  -2.5000000000000004
C  -4.118195517731659  1.5450849718747364  -2.3776412907378845
C  -3.5031463461101846  2.938926261462365  -2.0225424859373695
C  -2.545184802275637  4.045084971874736  -1.4694631307311836
C  -1.338082836649088  4.755282581475767  -0.7725424859373693
C  0.0  3.108624468950438e-16  4.4408920985006264e-17
C  0.5  -0.49999999999999967  -0.8660254037844386
C  1.0  0.5000000000000003  -1.7320508075688772
C  1.5000000000000004  -0.49999999999999967  -2.598076211353316
C  2.0  0.5000000000000003  -3.4641016151377544
C  2.5  -0.49999999999999967  -4.330127018922193
C  3.000000000000001  0.5000000000000003  -5.196152422706632
C  3.500000000000001  -0.49999999999999967  -6.06217782649107
C  4.000000000000001  0.5000000000000003  -6.928203230275509
S  4.500000000000001  -0.49999999999999967  -7.794228634059947
S  5.000000000000001  0.5000000000000003  -8.660254037844386
S  5.500000000000001  -0.49999999999999967  -9.526279441628825
S  6.000000000000002  0.5000000000000003  -10.392304845413264
S  6.500000000000002  -0.49999999999999967  -11.258330249197702
S  7.000000000000002  0.5000000000000003  -12.12435565298214
S  7.500000000000002  -0.49999999999999967  -12.990381056766578
S  8.000000000000002  0.5000000000000003  -13.856406460551018
S  8.500000000000002  -0.49999999999999967  -14.722431864335457
B  0.0  -2.220446049250313e-16  0.0
B  5.551115123125783e-17  -2.220446049250313e-16  -4.4408920985006264e-17
O  0.0  0.0  0.0
H  1.0  0.0  0.0
HE  0.0  1.5  0.0
LI  0.0  0.0  1.5

