82
XYZ file generated by PYTHON : coordinates in Angstrom
C  0.0  5.430092783735384e-16  5.0
C  0.0  -1.5450849718747366  4.755282581475767
C  0.0  -2.938926261462365  4.045084971874737
C  0.0  -4.045084971874737  2.9389262614623664
C  0.0  -4.755282581475767  1.5450849718747377
C  0.0  -5.0  7.307471888670266e-16
C  0.0  -4.755282581475768  -1.5450849718747364
C  0.0  -4.045084971874737  -2.9389262614623646
C  0.0  -2.9389262614623664  -4.045084971874736
C  0.0  -1.5450849718747375  -4.755282581475767
C  0.0  -6.816375207738149e-16  -5.0
C  0.0  1.5450849718747364  -4.755282581475768
C  0.0  2.938926261462365  -4.045084971874738
C  0.0  4.045084971874736  -2.938926261462367
C  0.0  4.755282581475767  -1.5450849718747377
C  0.0  5.0  -1.106223009854003e-15
C  0.0  4.755282581475768  1.5450849718747361
C  0.0  4.045084971874738  2.938926261462364
C  0.0  2.9389262614623677  4.045084971874736
C  0.0  1.5450849718747386  4.755282581475767
C  0.0  2.3684757858670006e-16  1.1842378929335e-16
C  1.0  2.0623140860801622e-16  -0.4999999999999999
C  2.0  2.674637485653839e-16  0.5000000000000001
C  3.0  2.0623140860801622e-16  -0.4999999999999999
C  4.0  2.674637485653839e-16  0.5000000000000001
C  5.0  2.0623140860801622e-16  -0.4999999999999999
C  6.0  2.674637485653839e-16  0.5000000000000001
C  7.0  2.0623140860801622e-16  -0.4999999999999999
C  8.0  2.674637485653839e-16  0.5000000000000001
C  9.0  2.0623140860801622e-16  -0.4999999999999999
C  10.0  2.674637485653839e-16  0.5000000000000001
C  11.0  2.0623140860801622e-16  -0.4999999999999999
C  12.0  2.674637485653839e-16  0.5000000000000001
C  13.0  2.0623140860801622e-16  -0.4999999999999999
C  14.0  2.674637485653839e-16  0.5000000000000001
C  15.0  2.0623140860801622e-16  -0.4999999999999999
C  16.0  2.674637485653839e-16  0.5000000000000001
C  17.0  2.0623140860801622e-16  -0.4999999999999999
C  -1.3322676295501878e-15  -3.5355339059327378  3.5355339059327378
C  -1.3322676295501878e-15  -4.4550326209418385  2.2699524986977346
C  -1.3322676295501878e-15  -4.938441702975688  0.7821723252011549
C  -1.3322676295501878e-15  -4.938441702975689  -0.7821723252011534
C  -1.3322676295501878e-15  -4.455032620941839  -2.269952498697733
C  -1.3322676295501878e-15  -3.5355339059327386  -3.5355339059327373
C  -1.3322676295501878e-15  -2.2699524986977355  -4.455032620941839
C  -1.3322676295501878e-15  -0.7821723252011558  -4.938441702975688
C  -1.3322676295501878e-15  0.7821723252011523  -4.938441702975688
C  -1.3322676295501878e-15  2.2699524986977324  -4.455032620941839
C  -1.3322676295501878e-15  3.5355339059327364  -3.535533905932738
C  -1.3322676295501878e-15  4.4550326209418385  -2.2699524986977355
C  -1.3322676295501878e-15  4.938441702975689  -0.7821723252011564
C  -1.3322676295501878e-15  4.938441702975688  0.7821723252011528
C  -1.3322676295501878e-15  4.455032620941839  2.2699524986977324
C  -1.3322676295501878e-15  3.535533905932738  3.535533905932737
C  -1.3322676295501878e-15  2.269952498697735  4.4550326209418385
C  -1.3322676295501878e-15  0.7821723252011561  4.938441702975688
C  -1.3322676295501878e-15  -0.7821723252011528  4.938441702975689
C  -1.3322676295501878e-15  -2.269952498697733  4.45503262094184
C  -1.3322676295501878e-15  -3.108624468950438e-16  -2.960594732333749e-17
C  0.9999999999999987  0.3535533905932734  -0.35355339059327384
C  1.9999999999999991  -0.35355339059327406  0.35355339059327373
C  2.999999999999999  0.3535533905932734  -0.35355339059327384
C  3.999999999999999  -0.35355339059327406  0.35355339059327373
C  4.999999999999999  0.3535533905932734  -0.35355339059327384
C  5.999999999999999  -0.35355339059327406  0.35355339059327373
C  6.999999999999999  0.3535533905932734  -0.35355339059327384
C  7.999999999999999  -0.35355339059327406  0.35355339059327373
C  9.0  0.3535533905932734  -0.35355339059327384
C  10.0  -0.35355339059327406  0.35355339059327373
C  11.0  0.3535533905932734  -0.35355339059327384
C  12.0  -0.35355339059327406  0.35355339059327373
C  13.0  0.3535533905932734  -0.35355339059327384
C  13.999999999999996  -0.35355339059327406  0.35355339059327373
C  14.999999999999996  0.3535533905932734  -0.35355339059327384
C  15.999999999999996  -0.35355339059327406  0.35355339059327373
C  16.999999999999996  0.3535533905932734  -0.35355339059327384
B  0.0  -1.4802973661668753e-16  -1.1842378929335003e-16
B  -1.3322676295501878e-15  7.401486830834377e-17  2.6645352591003756e-16
O  0.0  0.0  0.0
H  1.0  0.0  0.0
HE  0.0  1.5  0.0
LI  0.0  0.0  1.5

