38
000 frame 0 XYZ file generated by PYTHON code : coordinates in Angstrom
NA  -0.06950947300275057  -0.2880319311012647  -1.410131389609089
NA  -1.395912146921097  -0.10546977260090262  -0.6011189112453306
NA  -2.7069458678643197  -0.41194148437862843  0.19539841918265222
NA  -3.8742775207174405  -1.1774474799716677  0.9014519357099995
NA  -4.783640550021323  -2.3270546989374776  1.4479282007748995
NA  -5.346020166562919  -3.7482315768992045  1.7813343100287748
NA  -5.506366735145947  -5.301863419120401  1.8690341505208985
NA  -5.248984416437261  -6.8358699160948975  1.7024430508231818
NA  -4.599067585080132  -8.200091823847096  1.297868108482481
NA  -3.6202346287646243  -9.26098959695327  0.6949119376944783
C  -2.408300537185129  -9.914715169672355  -0.04740391050142756
C  -1.0818978632667826  -10.097277328172718  -0.8564163888651859
C  0.22913585767643974  -9.79080561639499  -1.6529337192931686
C  1.3964675105295608  -9.025299620801952  -2.358987235820516
C  2.3058305398334435  -7.875692401836142  -2.9054635008854164
C  2.8682101563750404  -6.454515523874415  -3.2388696101392918
C  3.028556724958067  -4.9008836816532195  -3.3265694506314154
C  2.771174406249383  -3.3668771846787227  -3.159978350933699
C  2.1212575748922533  -2.0026552769265233  -2.7554034085929984
C  1.142424618576746  -0.9417575038203516  -2.1524472378049957
C  -1.2389050050939394  -5.10137355038681  -0.7287676500552585
C  -0.8356861539700396  -5.588182219196119  0.19342098469927527
C  -0.08164864321878329  -4.6309884022197645  0.9112004975876598
C  0.20463065469599773  -5.599131232957628  1.9015255062975767
C  0.958668165447254  -4.641937415981274  2.619305019185961
C  1.2449474633620348  -5.6100802467191375  3.609630027895878
C  1.9989849741132915  -4.652886429742783  4.327409540784263
C  2.2852642720280723  -5.621029260480647  5.31773454949418
C  3.0393017827793285  -4.663835443504292  6.035514062382564
S  3.3255810806941097  -5.631978274242156  7.025839071092481
S  4.0796185914453655  -4.674784457265801  7.743618583980865
S  4.365897889360147  -5.642927288003665  8.733943592690782
S  5.1199354001114035  -4.68573347102731  9.451723105579166
S  5.406214698026184  -5.653876301765174  10.442048114289083
S  6.1602522087774405  -4.69668248478882  11.159827627177467
S  6.446531506692221  -5.6648253155266834  12.150152635887384
S  7.200569017443478  -4.707631498550329  12.867932148775768
S  7.486848315358258  -5.675774329288193  13.858257157485685
38
000 frame 1 XYZ file generated by PYTHON code : coordinates in Angstrom
NA  0.9708073356632858  -0.29898094486277405  0.29797313198921294
NA  -0.35559533825506084  -0.1164187863624111  1.1069856103529714
NA  -1.666629059198283  -0.4228904981401387  1.903502940780954
NA  -2.833960712051404  -1.1883964937331775  2.6095564573083014
NA  -3.743323741355286  -2.338003712698988  3.156032722373201
NA  -4.305703357896882  -3.759180590660715  3.489438831627077
NA  -4.46604992647991  -5.312812432881911  3.5771386721191996
NA  -4.208667607771223  -6.846818929856408  3.4105475724214824
NA  -3.5587507764140938  -8.211040837608607  3.005972630080782
NA  -2.579917820098586  -9.271938610714777  2.403016459292779
C  -1.3679837285190903  -9.925664183433863  1.660700611096873
C  -0.04158105460074424  -10.108226341934227  0.8516881327331147
C  1.2694526663424779  -9.8017546301565  0.05517080230513194
C  2.4367843191955987  -9.03624863456346  -0.6508827142222151
C  3.346147348499481  -7.88664141559765  -1.1973589792871153
C  3.9085269650410774  -6.465464537635923  -1.5307650885409907
C  4.068873533624105  -4.911832695414728  -1.6184649290331143
C  3.811491214915419  -3.3778261984402307  -1.4518738293353974
C  3.16157438355829  -2.0136042906880314  -1.0472988869946966
C  2.182741427242782  -0.9527065175818601  -0.44434271620669374
C  -0.19858819642790215  -5.112322564148319  0.9793368715430428
C  0.20463065469599773  -5.599131232957628  1.9015255062975767
C  0.958668165447254  -4.641937415981274  2.619305019185961
C  1.2449474633620348  -5.6100802467191375  3.609630027895878
C  1.9989849741132915  -4.652886429742783  4.327409540784263
C  2.2852642720280723  -5.621029260480647  5.31773454949418
C  3.0393017827793285  -4.663835443504292  6.035514062382564
C  3.3255810806941097  -5.631978274242156  7.025839071092481
C  4.0796185914453655  -4.674784457265801  7.743618583980865
S  4.365897889360147  -5.642927288003665  8.733943592690782
S  5.1199354001114035  -4.68573347102731  9.451723105579166
S  5.406214698026184  -5.653876301765174  10.442048114289083
S  6.1602522087774405  -4.69668248478882  11.159827627177467
S  6.446531506692221  -5.6648253155266834  12.150152635887384
S  7.200569017443478  -4.707631498550329  12.867932148775768
S  7.486848315358258  -5.675774329288193  13.858257157485685
S  8.240885826109515  -4.7185805123118385  14.57603667037407
S  8.527165124024293  -5.686723343049702  15.566361679083988
