38
XYZ file generated by PYTHON : coordinates in Angstrom
SI  -0.14699525800948157  3.534005687185769  3.5340056871857697
SI  -0.13980079799440479  2.268499076300105  4.453579198544211
SI  -0.1189216618222007  0.7809359702637343  4.937205348038269
SI  -0.08640164481490033  -0.783070589642899  4.937543438533945
SI  -0.04542403281745992  -2.270424744261669  4.454560375377904
SI  -1.8139924727916692e-17  -3.5355339059327373  3.5355339059327378
SI  0.045424032817459895  -4.454560375377904  2.27042474426167
SI  0.08640164481490027  -4.937543438533943  0.7830705896428994
SI  0.11892166182220067  -4.937205348038269  -0.7809359702637338
SI  0.13980079799440479  -4.453579198544211  -2.2684990763001056
C  0.14699525800948157  -3.5340056871857692  -3.5340056871857692
C  0.1398007979944048  -2.268499076300106  -4.453579198544211
C  0.11892166182220072  -0.7809359702637354  -4.937205348038269
C  0.08640164481490031  0.7830705896428988  -4.937543438533943
C  0.04542403281745992  2.270424744261669  -4.454560375377904
C  1.786352971431349e-17  3.5355339059327373  -3.5355339059327378
C  -0.04542403281745989  4.454560375377904  -2.27042474426167
C  -0.08640164481490029  4.937543438533944  -0.7830705896428996
C  -0.11892166182220067  4.937205348038269  0.7809359702637335
C  -0.13980079799440479  4.453579198544212  2.268499076300105
C  -9.139061117359145e-18  2.1971793105191382e-16  2.1971793105191385e-16
C  1.0142672802653012  -0.3326122999704226  -0.33261229997042263
C  1.9844359831277578  0.39497710621488535  0.3949771062148854
C  3.013402789194007  -0.2910357624741144  -0.2910357624741144
C  3.9835714920564635  0.4365536437111936  0.43655364371119365
C  5.0125382981227125  -0.24945922497780612  -0.24945922497780618
C  5.98270700098517  0.47813018120750184  0.4781301812075019
C  7.011673807051419  -0.20788268748149788  -0.20788268748149794
C  7.981842509913876  0.51970671870381  0.5197067187038101
S  9.010809315980124  -0.16630614998518967  -0.1663061499851897
S  9.980978018842581  0.5612832562001183  0.5612832562001184
S  11.00994482490883  -0.12472961248888141  -0.12472961248888144
S  11.980113527771287  0.6028597936964265  0.6028597936964265
S  13.009080333837536  -0.08315307499257323  -0.08315307499257323
S  13.979249036699994  0.6444363311927347  0.6444363311927348
S  15.008215842766242  -0.041576537496264984  -0.04157653749626499
S  15.9783845456287  0.686012868689043  0.6860128686890431
S  17.00735135169495  4.3255945436919626e-14  4.325594543691963e-14

