38
000 frame 0 XYZ file generated by PYTHON code : coordinates in Angstrom
SI  -0.06950947300275057  -0.2880319311012647  -1.410131389609089
SI  -1.395912146921097  -0.10546977260090262  -0.6011189112453306
SI  -2.7069458678643197  -0.41194148437862843  0.19539841918265222
SI  -3.8742775207174405  -1.1774474799716677  0.9014519357099995
SI  -4.783640550021323  -2.3270546989374776  1.4479282007748995
SI  -5.346020166562919  -3.7482315768992045  1.7813343100287748
SI  -5.506366735145947  -5.301863419120401  1.8690341505208985
SI  -5.248984416437261  -6.8358699160948975  1.7024430508231818
SI  -4.599067585080132  -8.200091823847096  1.297868108482481
SI  -3.6202346287646243  -9.26098959695327  0.6949119376944783
C  -2.408300537185129  -9.914715169672355  -0.04740391050142756
C  -1.0818978632667826  -10.097277328172718  -0.8564163888651859
C  0.22913585767643974  -9.79080561639499  -1.6529337192931686
C  1.3964675105295608  -9.025299620801952  -2.358987235820516
C  2.3058305398334435  -7.875692401836142  -2.9054635008854164
C  2.8682101563750404  -6.454515523874415  -3.2388696101392918
C  3.028556724958067  -4.9008836816532195  -3.3265694506314154
C  2.771174406249383  -3.3668771846787227  -3.159978350933699
C  2.1212575748922533  -2.0026552769265233  -2.7554034085929984
C  1.142424618576746  -0.9417575038203516  -2.1524472378049957
C  -1.2389050050939394  -5.10137355038681  -0.7287676500552585
C  -0.8356861539700396  -5.588182219196119  0.19342098469927527
C  -0.08164864321878329  -4.6309884022197645  0.9112004975876598
C  0.20463065469599773  -5.599131232957628  1.9015255062975767
C  0.958668165447254  -4.641937415981274  2.619305019185961
C  1.2449474633620348  -5.6100802467191375  3.609630027895878
C  1.9989849741132915  -4.652886429742783  4.327409540784263
C  2.2852642720280723  -5.621029260480647  5.31773454949418
C  3.0393017827793285  -4.663835443504292  6.035514062382564
S  3.3255810806941097  -5.631978274242156  7.025839071092481
S  4.0796185914453655  -4.674784457265801  7.743618583980865
S  4.365897889360147  -5.642927288003665  8.733943592690782
S  5.1199354001114035  -4.68573347102731  9.451723105579166
S  5.406214698026184  -5.653876301765174  10.442048114289083
S  6.1602522087774405  -4.69668248478882  11.159827627177467
S  6.446531506692221  -5.6648253155266834  12.150152635887384
S  7.200569017443478  -4.707631498550329  12.867932148775768
S  7.486848315358258  -5.675774329288193  13.858257157485685
38
000 frame 1 XYZ file generated by PYTHON code : coordinates in Angstrom
SI  1.800323739655084  -0.15355930240108684  3.3063559917332745
SI  0.46622821333458453  -0.24355601147031258  4.118306670192663
SI  -0.7801939889032921  -0.8117491620367927  4.873794871728688
SI  -1.8169343775693694  -1.8025200496886193  5.498868147379186
SI  -2.5425095800259783  -3.1188851168357434  5.9323399697818875
SI  -2.8858952400769695  -4.631989379051077  6.131779096784239
SI  -2.813478376807974  -6.193719648731679  6.077663037061143
SI  -2.332347657353716  -7.651202885866594  5.775289047587055
SI  -1.4895995087692173  -8.861770476322224  5.2542556012151636
SI  -0.36772799160954717  -9.70692362982441  4.565565081929835
C  0.9234502934872229  -10.103932867180077  3.7766313161477165
C  2.2575458198077216  -10.013936158110855  2.9646806376883283
C  3.5039680220455987  -9.445743007544372  2.209192436152303
C  4.540708410711676  -8.454972119892547  1.5841191605018041
C  5.2662836131682855  -7.138607052745423  1.1506473380991025
C  5.609669273219278  -5.62550279053009  0.9512082110967508
C  5.537252409950281  -4.063772520849487  1.005324270819848
C  5.056121690496024  -2.6062892837145717  1.307698260293936
C  4.213373541911525  -1.395721693258941  1.8287317066658266
C  3.091502024751855  -0.5505685397567559  2.517422225951155
C  0.3215702079051166  -5.117797071029074  1.8333891323421936
C  0.8723129886275895  -5.621857919177481  2.665618097739328
C  1.3313026401816987  -4.630159743522929  3.5633169493425103
C  1.9126297972936275  -5.6328069329389905  4.373722619337631
C  2.3716194488477362  -4.641108757284439  5.271421470940812
C  2.9529466059596636  -5.6437559467005  6.081827140935932
C  3.4119362575137746  -4.652057771045948  6.979525992539113
C  3.9932634146257007  -5.654704960462009  7.789931662534231
C  4.452253066179812  -4.6630067848074574  8.687630514137416
S  5.033580223291739  -5.665653974223519  9.498036184132532
S  5.492569874845849  -4.673955798568967  10.395735035735717
S  6.073897031957776  -5.676602987985028  11.206140705730833
S  6.532886683511886  -4.684904812330476  12.103839557334018
S  7.114213840623813  -5.687552001746536  12.914245227329134
S  7.573203492177924  -4.6958538260919855  13.811944078932319
S  8.15453064928985  -5.698501015508046  14.622349748927435
S  8.613520300843959  -4.706802839853494  15.52004860053062
S  9.194847457955888  -5.709450029269555  16.330454270525742
