154
000 frame 0 XYZ file generated by PYTHON code : coordinates in Angstrom
C  -0.07704503820623465  1.0020594596761967  -0.8308631830440041
C  -0.9615432837681211  0.04976250977430485  -1.390643472224518
H  -2.016180304524099  0.21428782257776113  -1.3715817695414643
C  -0.46509455547876444  -1.1526912070438091  -1.9093200046792707
O  -1.2294672928647867  -2.138110725425301  -2.4642815475642483
C  -2.636656677030336  -1.9101562504865792  -2.5450109468986115
C  -3.27779335526327  -2.9846149277422125  -3.4072069580627966
H  -4.078451235579368  -2.5102830875529905  -4.016196442433669
H  -2.5176274569703168  -3.3688977905675417  -4.131217822428711
O  -3.8325953907148924  -4.028674301007467  -2.6172095769403727
C  -4.512246421826307  -4.972013436220787  -3.4441942269632997
H  -3.843408959447699  -5.423935384684196  -4.143046570051417
C  -5.161303115693327  -6.057263773611558  -2.610445804042257
O  -4.224035158855537  -7.099778411892249  -2.367668333907617
C  -4.770296476499384  -8.253173565824167  -1.7231404264380872
H  -4.093933588221287  -9.085183710404875  -1.9363370455658733
H  -5.7523230067218964  -8.495523627090819  -2.179668189804522
C  -4.947038220539729  -8.10731673072498  -0.22871091740396132
H  -5.480383764168511  -8.958628268966727  0.14819804744254472
O  -3.625222182446809  -8.068627285330564  0.3723410388407222
C  -3.557736905967084  -7.75506879932532  1.7096057866533205
C  -2.237045912923012  -7.715434875777916  2.2466337039474076
O  -1.2078081221761583  -8.023258955748313  1.405003360492712
C  0.13034369210237506  -7.789701642883495  1.910536783659794
H  0.2802938302047351  -6.6957213564489875  2.1264213441651845
C  1.1714092909474525  -8.24696155885136  0.9213941777361427
H  0.9314647475772131  -9.291470016516747  0.5859080319116112
O  1.2915287861551659  -7.355755698442335  -0.17079536774082393
C  2.5012929083732756  -7.554429377003036  -0.8822073971249391
C  2.59569989293293  -6.621903207124439  -2.0687776874752126
H  1.7200972963587837  -6.772989458670523  -2.7283580356717674
H  3.485260199049929  -6.917202843565007  -2.626136712031566
O  2.6727097651058385  -5.2688281745478776  -1.6522457043324983
C  2.9065416224967615  -4.387675040172342  -2.7393909272411365
H  2.175569810017744  -4.609720652864506  -3.550019376460705
H  3.934170168348638  -4.534534589406287  -3.1277212946564186
C  2.736739395082899  -2.955774935368244  -2.307802878481355
H  3.298405597967892  -2.279378499884296  -2.9673006957887105
O  1.331579406916409  -2.6158069470824223  -2.3782921613088375
H  3.135119322564967  -2.8122011701590037  -1.2671837124856447
H  2.5495247879344816  -8.616708146515997  -1.2792159717227096
H  3.370692469736639  -7.365991257206452  -0.20950996997074267
H  2.1176004955179697  -8.305002626441686  1.450832666400916
H  0.2640686016866547  -8.39593071407062  2.8268040159099774
C  -2.0796858432226326  -7.323357346385627  3.5836169568985796
H  -1.0668606423925016  -7.203242599232226  4.052570306916298
C  -3.1821393347393303  -7.036728248550486  4.387533767280416
C  -4.472098945578338  -7.1371217361047155  3.8750719274656427
H  -5.3174912139994905  -6.910803670190176  4.473375464315611
H  -3.0363171946401497  -6.709735151135831  5.412255723908183
C  -4.657186892505224  -7.4994840856092075  2.5142859549824323
H  -5.673543046613498  -7.575048835726581  2.1302654453696683
H  -5.4972288790270225  -7.172227673941169  6.682184748629805e-05
H  -6.038054132876893  -6.462639296493679  -3.187623662887932
H  -5.576202616666822  -5.614954889707084  -1.6624589138731705
H  -5.307854006449286  -4.4419385985170265  -4.030537568891521
H  -3.073060760626011  -1.923982440249055  -1.5066039498503478
H  -2.8380230453764117  -0.9343678657029404  -2.9831959417340683
C  0.9304562711953448  -1.408714954946341  -1.8842467068849853
C  1.798698240255872  -0.4440336083488621  -1.327217900730174
H  2.899284657775831  -0.629093862520774  -1.3116456522945357
H  -0.45517333393052983  1.9169695569147933  -0.39950928765771915
C  1.2888162373472816  0.7485256113578238  -0.8057969703152292
H  1.9688684948658701  1.5102857069590918  -0.40331324407373775
H  -4.285835076798669  10.819948182796374  2.9671698519654788
C  0.08511711096623409  -3.214911519562849  0.7497912702670413
H  1.1272102429748645  -2.8199999729766487  0.7330595420824682
C  -0.21179393035470007  -4.270561146836972  -0.09827560358578469
H  0.5695020007254326  -4.665029312585585  -0.7601761578573459
C  -1.50748846172821  -4.8172927661083085  -0.0950132637002643
N  -1.8201603891698548  -5.962443532956239  -0.8194267585576793
H  -2.518202508622595  -6.585214636373079  -0.3779560513590768
C  -1.2847355680019308  -6.491968524334596  -1.9414798993891604
N  -1.3408617221897137  -7.889834013741881  -1.8885562495770198
H  -1.3675540000269735  -8.238379464986014  -0.9081295194531095
C  -1.2695740297795435  -8.8392710930479  -2.881100649185499
C  -0.8222408913729792  -10.130293426110955  -2.5481874882612976
H  -0.5746516030583517  -10.308479571304868  -1.5630519953433892
C  -0.7609352180997632  -11.131136880726045  -3.517997403634564
C  -0.3464080383168411  -12.509470429805173  -3.103601586658634
F  0.5923426356025059  -12.502557771734718  -2.1052574434637803
F  -1.405744474002124  -13.231729973663867  -2.6118741567464387
F  0.1879352980324107  -13.22738737420876  -4.1447330834170755
C  -1.1335153900321033  -10.88480189009381  -4.844534915944605
H  -1.0937204194015733  -11.664873336335834  -5.618542546874233
C  -1.5900578514087198  -9.594661450205308  -5.163432898832642
C  -1.9721311992749035  -9.275224003000197  -6.5941544485723025
F  -2.4463677238059054  -10.374327402664118  -7.24680437893616
F  -0.8858773454995582  -8.848852920871337  -7.307983995585305
F  -2.9123072077311036  -8.318438497227383  -6.681799251130567
C  -1.6569660840639555  -8.573079954794686  -4.2060783289564565
H  -2.0272331269781216  -7.576618249545906  -4.503469118021792
S  -0.647421843122571  -5.6327931828277435  -3.2449648641971445
C  -2.459263608171787  -4.306691507033399  0.8042523288764558
H  -3.4663058516500898  -4.74821927392804  0.825918184699584
C  -2.13745014602314  -3.2640935996555793  1.6581805115864197
H  -2.935224896851206  -2.8992041387273386  2.3796351249473062
C  -0.8587961321877688  -2.690948168268238  1.6522798381393131
C  -0.5149071985536882  -1.5274375780793261  2.5682717644759876
H  0.5222588398535797  -1.2294935277727297  2.3699012908530652
H  -0.5989566417185549  -1.820835454876133  3.632521028627974
C  -1.425001118802199  -0.32925694070857325  2.3322828251267462
H  -2.4453224282808295  -0.6100452644577858  2.6376893705418376
H  -1.396989653480646  -0.06255003575710116  1.2535471626282972
O  -0.944956114269998  0.762371895841297  3.103072233107247
C  -1.7232624068951017  1.8933497221577635  3.1427421353406637
C  -2.9195777078793324  2.0636275622259594  2.4298527865797683
H  -3.272462820245185  1.3141136348012168  1.7860438298970633
C  -3.6640958744788494  3.2519344980505176  2.57278635720352
H  -4.60030833254908  3.3427223031974824  2.018093829244052
C  -3.238112992361251  4.285690686741369  3.423937707305773
C  -2.0151847030300427  4.117386255615917  4.107101926468056
H  -1.6296733719927643  4.900642675788165  4.71687000216869
N  -3.9911211195535468  5.446494126625553  3.5264572148123885
C  -3.8093857608138086  6.357230086600777  4.667549224302562
H  -2.900628223425201  6.958259257665852  4.533168609653211
H  -3.708643878604419  5.832217816294524  5.6276423696482425
C  -5.00279299968493  7.279781710437029  4.793428664514753
C  -6.002702366055721  7.030943376273123  5.746266340742791
H  -5.874929608686007  6.172342290910058  6.391258987291305
C  -7.130446127893861  7.826863122573999  5.846518530415542
C  -8.24139354227269  7.572090183189503  6.87468553654754
C  -7.921428808503701  6.372401671733857  7.7894517732745125
H  -8.721989457475345  6.239587477546979  8.532359361684671
H  -7.824018027147847  5.427510055781155  7.21209920739083
H  -7.020931972216991  6.535952087767229  8.364537081826999
C  -9.566761751498536  7.275246460858033  6.146670712223029
H  -9.474587667653829  6.416486060931564  5.532223796198293
H  -10.398702124753658  7.101149123594687  6.867880499883668
H  -9.896562566415191  8.106246287155816  5.511669664087176
C  -8.387664453928593  8.831614067714472  7.766164237110173
H  -8.65060942692974  9.702406427565741  7.1593064928126005
H  -9.161185852748083  8.7110882272111  8.53173168035641
H  -7.4601936085005836  9.034800471531693  8.321501942922968
C  -7.255013468810578  8.884137712633155  4.93049571150647
H  -8.140954172659386  9.538649610125756  5.010204413174581
C  -6.303453526624941  9.170426592844684  3.955940972423688
C  -6.4389921529498  10.335189964187393  2.959363494834277
C  -5.276773922993385  11.317570025208806  3.1681514061386205
H  -5.364072703877111  12.159594822506218  2.4624247555283247
H  -5.271805787589839  11.709342582142249  4.173964973905559
C  -6.396435937174505  9.777096815394291  1.5140614726740864
H  -6.463910243929159  10.620283520416422  0.7897574984605118
H  -5.448982214791599  9.241860098883862  1.3311200644831644
H  -7.212949008604573  9.065380181768376  1.321586004442163
C  -7.761513608025243  11.100947942278399  3.139918496375048
H  -7.838864709047341  11.57885062352948  4.114082955956718
H  -7.831109365896559  11.939491145073386  2.4005647505971868
H  -8.694162149401599  10.454769636187745  3.022628900860778
C  -5.158730093114951  8.35023574850484  3.91183088872592
H  -4.34883340751437  8.540942619758983  3.176910571179217
C  -1.2686921334640529  2.9422165976606136  3.9607100798672854
H  -0.33360311892080396  2.783400779574154  4.465099097278378
H  -4.984166603414337  5.30795019506044  3.2451721829887203
154
000 frame 1 XYZ file generated by PYTHON code : coordinates in Angstrom
C  0.9632717704598024  0.9911104459146873  0.8772413385542972
C  0.07877352489791623  0.03881349601279549  0.3174610493737833
H  -0.9758634958580619  0.20333880881625177  0.33652275205683724
C  0.5752222531872728  -1.1636402208053185  -0.2012154830809696
O  -0.18915048419874925  -2.1490597391868103  -0.756177025965947
C  -1.5963398683642989  -1.9211052642480886  -0.8369064253003101
C  -2.2374765465972324  -2.995563941503722  -1.6991024364644955
H  -3.0381344269133304  -2.5212321013145  -2.3080919208353676
H  -1.4773106483042797  -3.379846804329051  -2.4231133008304093
O  -2.792278582048855  -4.039623314768976  -0.9091050553420719
C  -3.47192961316027  -4.982962449982296  -1.7360897053649986
H  -2.8030921507816613  -5.434884398445705  -2.4349420484531157
C  -4.120986307027289  -6.068212787373067  -0.9023412824439556
O  -3.1837183501895  -7.110727425653758  -0.6595638123093158
C  -3.7299796678333466  -8.264122579585676  -0.015035904839785785
H  -3.053616779555249  -9.096132724166385  -0.2282325239675721
H  -4.712006198055859  -8.506472640852326  -0.4715636682062206
C  -3.9067214118736917  -8.11826574448649  1.4793936041943399
H  -4.440066955502474  -8.969577282728235  1.856302569040846
O  -2.584905373780772  -8.079576299092071  2.0804455604390233
C  -2.5174200973010468  -7.76601781308683  3.4177103082516216
C  -1.196729104256974  -7.7263838895394255  3.9547382255457086
O  -0.16749131351012103  -8.034207969509822  3.113107882091013
C  1.1706605007684123  -7.800650656645004  3.618641305258095
H  1.320610638870773  -6.706670370210497  3.8345258657634855
C  2.21172609961349  -8.25791057261287  2.629498699334444
H  1.9717815562432506  -9.302419030278259  2.294012553509912
O  2.3318455948212033  -7.366704712203845  1.5373091538574775
C  3.5416097170393126  -7.565378390764545  0.8258971244733622
C  3.636016701598967  -6.632852220885948  -0.36067316587691195
H  2.760414105024821  -6.783938472432032  -1.0202535140734663
H  4.525577007715966  -6.928151857326516  -0.9180321904332643
O  3.7130265737718755  -5.279777188309387  0.05585881726580311
C  3.9468584311627986  -4.398624053933851  -1.0312864056428352
H  3.215886618683781  -4.620669666626015  -1.8419148548624036
H  4.974486977014675  -4.5454836031677965  -1.419616773058117
C  3.777056203748936  -2.966723949129753  -0.5996983568830534
H  4.33872240663393  -2.2903275136458054  -1.259196174190409
O  2.3718962155824466  -2.6267559608439317  -0.6701876397105361
H  4.175436131231004  -2.823150183920513  0.44092080911265663
H  3.589841596600519  -8.627657160277506  0.42888854987559144
H  4.411009278402676  -7.376940270967961  1.498594551627559
H  3.157917304184007  -8.315951640203195  3.158937187999217
H  1.3043854103526922  -8.406879727832129  4.534908537508279
C  -1.0393690345565951  -7.334306360147137  5.29172147849688
H  -0.02654383372646474  -7.214191612993735  5.760674828514599
C  -2.141822526073293  -7.047677262311995  6.0956382888787175
C  -3.431782136912301  -7.148070749866225  5.583176449063943
H  -4.2771744053334535  -6.921752683951685  6.181479985913912
H  -1.996000385974112  -6.7206841648973406  7.120360245506484
C  -3.6168700838391863  -7.510433099370717  4.222390476580733
H  -4.633226237947461  -7.5859978494880895  3.8383699669679694
H  -4.4569120703609855  -7.183176687702678  1.7081713434457875
H  -4.997737324210856  -6.473588310255188  -1.479519141289631
H  -4.535885808000785  -5.625903903468593  0.0456456077251306
H  -4.267537197783248  -4.452887612278536  -2.32243304729322
H  -2.032743951959974  -1.9349314540105644  0.20150057174795322
H  -1.7977062367103747  -0.9453168794644489  -1.2750914201357673
C  1.9707730798613818  -1.4196639687078503  -0.17614218528668413
C  2.83901504892191  -0.45498262211037144  0.3808866208681274
H  3.939601466441869  -0.6400428762822834  0.39645886930376584
H  0.5851434747355075  1.9060205431532848  1.3085952339405824
C  2.3291330460133186  0.7375765975963144  0.902307551283072
H  3.0091853035319076  1.4993366931975824  1.3047912775245636
H  -0.6281801940407397  1.9260884955953728  15.190536808487252
C  1.182889354129713  -3.7830315940853256  1.5844627031289233
H  1.83875942650022  -2.9068352957819816  1.3739688287692973
C  0.3952409992472432  -4.255605007624423  0.5461688321965539
H  0.42834671277421443  -3.7501675200031928  -0.4272672300568718
C  -0.4310352004059025  -5.373677293739476  0.7581415424967706
N  -1.1322128646364065  -5.973002515998663  -0.28256402859538027
H  -1.2325773038155592  -7.000053562807424  -0.2111766369017649
C  -1.6010592010542923  -5.4833128130666635  -1.4515237431008212
N  -1.5380619576789987  -6.467081695556261  -2.445610820544995
H  -0.8033402588826029  -7.17562309813338  -2.24168414604564
C  -2.1967440033869625  -6.586842184018293  -3.6470484909673
C  -1.5966372196612377  -7.338688325999379  -4.6728535410695615
H  -0.6852923807767948  -7.7769026180869885  -4.470464024832518
C  -2.2425776717353  -7.509033821465953  -5.8974843518555105
C  -1.5990184993853283  -8.376228739727964  -6.935349764058731
F  -0.2310901557089311  -8.295666259814855  -6.918815730246836
F  -1.894951899331359  -9.703212004673079  -6.74250984250355
F  -1.9996206239906664  -8.05012548992022  -8.207378435878523
C  -3.495803122209389  -6.937529632726485  -6.146497637103284
H  -4.018141499081267  -7.066407406903362  -7.105526340029828
C  -4.091389867816661  -6.198234414795267  -5.110491697754217
C  -5.432350503969732  -5.534721066821057  -5.348313244431658
F  -6.187810552061874  -6.231416032800892  -6.244291333489057
F  -5.273010240060212  -4.283431050931778  -5.877630099575496
F  -6.157806397975974  -5.406829942812125  -4.223853975004621
C  -3.459392858271452  -6.011540370897428  -3.873415164259117
H  -3.969428810407378  -5.42673151706081  -3.0883439404076056
S  -2.19904748822736  -3.9287195896032507  -1.7143431160909977
C  -0.4027671769839737  -6.01328702159116  2.009288414785651
H  -1.0298673314279645  -6.902289046355726  2.1704437890620163
C  0.40622976120973986  -5.537626267400582  3.0286207663918843
H  0.4083423173505396  -6.1003221115750605  4.015258772425666
C  1.2181776050827806  -4.410730420863299  2.843328995253612
C  2.0831672874624725  -3.871358506807627  3.9711270662646903
H  2.6033727506937763  -2.9766698614749334  3.6067736703961155
H  2.840826022199212  -4.616258501990611  4.282334968006847
C  1.255560603655863  -3.4961047085484536  5.193358765554702
H  0.8261890088160224  -4.42006661222129  5.611814557029048
H  0.45129689738082934  -2.79468428158979  4.882300699756538
O  2.104004520274748  -2.856659599310391  6.135412854894803
C  1.5732688793085896  -2.5791274061292446  7.371430974122374
C  0.24297207840994117  -2.8267708873111954  7.742050986413833
H  -0.44105479606276465  -3.2253673852809306  7.053562010871477
C  -0.19034972688054075  -2.540253524618359  9.052375638426474
H  -1.2271803311113125  -2.7636999323675155  9.31213320574227
C  0.6854565694261734  -2.0084990145539767  10.01402649329556
C  2.0108196147982156  -1.7300456503836137  9.618463786925275
H  2.6892562197476946  -1.2740560930277094  10.300903534368102
N  0.2173415646532313  -1.7260993910713158  11.289218600410127
C  1.1558226672179992  -1.5546911448026375  12.40923250066783
H  1.6266543463218524  -0.5641067922633969  12.362385448658388
H  1.9666619600430648  -2.296380064207907  12.410919683341168
C  0.42584850151050047  -1.6975360804488568  13.727527236931653
C  0.4954026155173803  -2.893580515247477  14.458471030911134
H  1.101409116485462  -3.692044813757348  14.05257929632701
C  -0.20520758648839355  -3.070020386670137  15.638877339378036
C  -0.151785105871449  -4.370141162692847  16.45317016568495
C  0.7981759640077519  -5.409849909730071  15.82467441368785
H  0.8359926358557193  -6.314030463049374  16.45035490252089
H  0.4687087067743685  -5.707070692362442  14.805480543839202
H  1.815912403756534  -5.048295706975683  15.781575683566393
C  -1.558252270195114  -4.995275262633967  16.52919741554008
H  -1.9227632977788436  -5.220996102816563  15.559820135063633
H  -1.5556171316983547  -5.934849648449823  17.129006764313022
H  -2.288441747576181  -4.33741943996882  17.015617669711087
C  0.36823926933963946  -4.040953470036845  17.875752318332907
H  -0.2985231195740671  -3.3310764594776905  18.372942685521917
H  0.4403529245056521  -4.9319308622926545  18.508140055442755
H  1.3871629237681358  -3.628128383672186  17.840299732720137
C  -1.0214666925967115  -2.0103231286810392  16.066904416880824
H  -1.5723988403875508  -2.130002569493203  17.016525831863955
C  -1.1407645643495687  -0.8073777240468205  15.377067510620746
C  -2.029440366629713  0.3551142470528328  15.853595405771403
C  -1.1502294795119674  1.584180649342203  16.128910107484522
H  -1.774573898054642  2.4238485355027093  16.475073117892215
H  -0.40742938869682965  1.3726013503157537  16.883001333496406
C  -3.0643278607097804  0.6912956515441779  14.749889436157142
H  -3.6896530279958344  1.5520298191504436  15.07888484119116
H  -2.5556968976634744  0.974464338184875  13.812486376675396
H  -3.7155243227932004  -0.16487640877680132  14.519252190329777
C  -2.7964798735882344  0.007452670888692836  17.141551232634338
H  -2.135329593397871  -0.18006798706393567  17.984810901854658
H  -3.43431828725716  0.8709682271996462  17.46115297843746
H  -3.4703423629384837  -0.9083414431433665  17.050079705039916
C  -0.3857228777894881  -0.6635934803480996  14.196267526427773
H  -0.41388195631575175  0.2806143522962037  13.61309665926876
C  2.4422744603573543  -2.005079649679929  8.315425618020843
H  3.443462988476318  -1.8036510120844804  7.982153589194112
H  -0.6414037127516283  -2.263431468789221  11.530643143296892
