154
000 frame 0 XYZ file generated by PYTHON code : coordinates in Angstrom
C  -1.2518542802264871  0.8355057613474273  2.1631731406044175
C  -0.9325156439001436  -0.27209378114382865  1.342315852050608
H  -0.9546696514679945  -0.18143792539629278  0.2788395296161763
C  -0.6559348655926461  -1.5185008985094548  1.917949413511574
O  -0.34387681716849705  -2.648999593409221  1.219456680413282
C  -0.26788841322542745  -2.5419492176486633  -0.20231278788507834
C  0.3305864129970433  -3.814738605960427  -0.7774081768005778
H  0.9955312406259615  -3.5350312525243526  -1.6238856429195514
H  0.9862188235855722  -4.287360661208306  -0.005079374807679726
O  -0.6771333668248498  -4.707355153842507  -1.2353357687049966
C  -0.08738947220978766  -5.847589632055687  -1.858059891368912
H  0.5264337537933403  -6.3873414289815855  -1.1711387598274887
C  -1.1497425837222819  -6.777863715522523  -2.4059424658986686
O  -1.5690393347178175  -7.678634375490358  -1.387585285585652
C  -2.4567844411586135  -8.707641666937214  -1.8316468262692627
H  -2.3960392202495537  -9.516391615028532  -1.0985752231283294
H  -2.0953140824804506  -9.107975343149704  -2.801491857430659
C  -3.894229663928637  -8.266144350312329  -1.9886906699952152
H  -4.457472856838571  -9.055357747623148  -2.448199637241356
O  -4.426985639168942  -8.010569804339486  -0.6617352494378111
C  -5.667453796038523  -7.4211513031087595  -0.5912031671684934
C  -6.137451158056679  -7.178082882193578  0.7332645573935281
O  -5.341462615792108  -7.581808652346954  1.7656576376843347
C  -5.740010694272671  -7.154909291196228  3.0921868318512584
H  -5.71993859829379  -6.032208203509661  3.1630630137409566
C  -4.8302113379707725  -7.734339880997255  4.144723116061222
H  -4.726320662670356  -8.840015666165142  3.977959685576956
O  -3.574006002704197  -7.084264090882645  4.17479311373644
C  -2.876398598258802  -7.341726705170013  5.381509505030888
C  -1.5202901373134055  -6.672819936097284  5.3809040093537845
H  -0.9376497584561924  -7.019011170738856  4.506126885599858
H  -1.0046444508182437  -7.014834788960993  6.27884825159539
O  -1.645519290292583  -5.260638937632371  5.363470019744014
C  -0.39228054934931167  -4.611359140647468  5.507765975577707
H  0.32854800920131044  -5.048142316798362  4.7795014812844645
H  -0.006363317464436413  -4.763663044187075  6.535511100016953
C  -0.5247304393458876  -3.136418632678582  5.238607147007382
H  0.27972963483311974  -2.574774005889744  5.733902750342336
O  -0.4355590919647486  -2.9178202623364964  3.810571857637155
H  -1.4984662541886538  -2.7515124496807215  5.645908060948287
H  -2.7057777473650746  -8.457395017683284  5.502137231371982
H  -3.464374670701117  -6.956797443243736  6.247534881298439
H  -5.32626025096904  -7.614349041501441  5.103101615801066
H  -6.756345831407002  -7.545897899615912  3.290006133749024
C  -7.358240873029772  -6.5058360604004735  0.8874329123414628
H  -7.756000550017038  -6.2199985244626586  1.8975041112305036
C  -8.124329932638243  -6.135773899158529  -0.2171048770812456
C  -7.689804544019119  -6.430841374282908  -1.505830859970816
H  -8.258157091773665  -6.14449098954257  -2.353683391542621
H  -9.05363197303809  -5.59293064196385  -0.07581585938374524
C  -6.44059125595199  -7.08100404808643  -1.6903766316705982
H  -6.11680882823158  -7.305921371675108  -2.705629680080942
H  -3.9444471374210037  -7.344759753200607  -2.603482657859267
H  -0.7002121114885725  -7.355017929524108  -3.2609110672049404
H  -2.000133256058739  -6.177772684693968  -2.833942872141003
H  0.567098537872103  -5.508429013022739  -2.70327276163064
H  -1.3016206250310827  -2.3694780200893097  -0.615326322177782
H  0.35485805520293945  -1.6955059568469912  -0.4859289337264776
C  -0.6837100881574736  -1.6653519433670696  3.329119937303377
C  -0.9983793952377673  -0.5473826988048796  4.132776147129528
H  -1.0126972005204218  -0.6476336230693125  5.244317872689548
H  -1.498204602787733  1.7914845919401827  1.7255389655747493
C  -1.280163664617032  0.6890041642407123  3.544556726767571
H  -1.492294904844245  1.563626926826914  4.172870363561779
H  -3.08841839888163  10.910304441000715  -2.7005056425877303
C  -3.6622175659440317  -2.937305843164616  2.676642449195281
H  -3.527299045130325  -2.48261446501766  3.685228548402961
C  -3.0614425458788257  -4.164708036424988  2.443569594074698
H  -2.467894196330744  -4.632837364304502  3.2389915566733363
C  -3.2235442203938423  -4.7880604776601725  1.193407522129876
N  -2.762715709035348  -6.078094363906859  0.9539110085677869
H  -3.347761982144061  -6.642429479896784  0.3141846856157129
C  -1.7558420309195515  -6.791122404489723  1.5051606036940557
N  -2.098157555258168  -8.147656048578344  1.5563029405749425
H  -3.129734135289687  -8.285121088867625  1.5759524863539682
C  -1.3210992008682911  -9.275798460840466  1.679315539006025
C  -1.897244292494142  -10.434490550679381  2.2299208860931667
H  -2.8885093417741166  -10.3855883359158  2.5101794683007554
C  -1.1533829670263884  -11.608739299450047  2.347340997920472
C  -1.8283930929941075  -12.837912197926714  2.873511468314343
F  -2.7698002032364006  -12.557313957114161  3.8290264712919257
F  -2.4959587812906956  -13.5141090029313  1.8821677687307337
F  -0.9395752935362527  -13.71792341791743  3.4396081965882863
C  0.18133642186317211  -11.671090369711724  1.930405534506611
H  0.7785505922228828  -12.59065420491239  2.0135950854099756
C  0.7432679388547221  -10.510981049252024  1.3709695399909902
C  2.1946136675746004  -10.524405890193052  0.9369190497386206
F  2.5890350004250737  -11.765865577299646  0.5343148353572618
F  3.0192281749437626  -10.181276252108804  1.9730490234440423
F  2.444418454497003  -9.675124389035112  -0.07469824082664978
C  0.015667629073785827  -9.319491033434618  1.2461393864246706
H  0.49900891831218264  -8.435347225003767  0.7954223813678778
S  -0.28126142873015403  -6.180147956874462  2.0489862897934468
C  -4.03127573771275  -4.169083984193994  0.22402314139386315
H  -4.1793966136946015  -4.665768212081244  -0.7459847154113001
C  -4.639591415588472  -2.951448936904318  0.483030032764568
H  -5.298064338089713  -2.5009107092878584  -0.32537230931757066
C  -4.470062727919917  -2.304072178287433  1.714147389893729
C  -5.113319834301809  -0.9539998041561981  1.9872455059043608
H  -4.820985150559499  -0.632117481190547  2.994601994932664
H  -6.21751311439607  -1.024205391554121  1.9472268234418602
C  -4.667560051308833  0.10194279914773574  0.984308819302246
H  -5.060415931523577  -0.17970830181733177  -0.005392009240564488
H  -3.556703232864503  0.1391684023042714  0.9701939948400717
O  -5.178836459894345  1.3611490457260693  1.395659153227578
C  -5.011809561549017  2.418231921107175  0.5347741204225513
C  -4.322098762718164  2.351974581914825  -0.6851787658576014
H  -3.8598414430565473  1.4618817445890322  -0.9931429098720812
C  -4.243008941518841  3.488877803852678  -1.51464036464726
H  -3.7151515022773354  3.396264986966391  -2.4660652869449438
C  -4.846732713542714  4.704599614461908  -1.1511709978540814
C  -5.5060247075866995  4.768447162477691  0.09456207545195872
H  -5.926871202370176  5.686642505334137  0.43180420275522224
N  -4.734104902496421  5.805652365118367  -1.9878273977786651
C  -5.65541273028543  6.944722182210348  -1.852658829778141
H  -5.367643541346581  7.56662290898977  -0.995009218483404
H  -6.6990074423888855  6.639790820831744  -1.6929948067157263
C  -5.630461391689995  7.787402886513539  -3.109812213895767
C  -6.649063615042482  7.673334746330194  -4.06849718025418
H  -7.4524530860192595  6.979177114747972  -3.862954591348716
C  -6.6228615874082655  8.391736776207875  -5.251103079810818
C  -7.720293062148592  8.279813474713741  -6.31851028115808
C  -8.851054076640024  7.322618119821519  -5.890043475081802
H  -9.633347575399764  7.291916509904383  -6.663039555746863
H  -8.478109517969186  6.287303967204571  -5.7329385002929545
H  -9.347616248956708  7.66509387286079  -4.993102690824394
C  -7.116809862779799  7.745685563866581  -7.631993464485538
H  -6.689999332371133  6.786293225074615  -7.487391907694644
H  -7.887524480895143  7.667991396083303  -8.43357990338489
H  -6.336067853137882  8.400860728915642  -8.036645212836508
C  -8.337179212044443  9.684130480695785  -6.541837605099104
H  -7.5733655665262996  10.388670970684753  -6.882288963595796
H  -9.138132155024264  9.672033346594539  -7.288351761225952
H  -8.805290960791668  10.063042416848315  -5.621411624023764
C  -5.513327430566784  9.2234192535633  -5.47399901434515
H  -5.487636408526174  9.816516603122686  -6.405237832881648
C  -4.4674769935136105  9.366109033409938  -4.566793923962161
C  -3.2573755528556605  10.285085306057407  -4.810408810442132
C  -3.217429035998702  11.368288993004494  -3.722066842760318
H  -2.3566366002515196  12.036446246688577  -3.8872310298558825
H  -4.119874917608785  11.960524750620436  -3.7264929025971973
C  -1.9578374380578256  9.4422960620226  -4.754875866902534
H  -1.0779354534118173  10.109101024565263  -4.900740489084132
H  -1.855777182488107  8.948335322780569  -3.7734478512490774
H  -1.9455739385583084  8.650726218571524  -5.518778843586043
C  -3.3228432180702026  10.977174098820633  -6.183280063134525
H  -4.179487122775251  11.641070805575524  -6.276944053974384
H  -2.4292593349543674  11.63616295692512  -6.331211677716665
H  -3.3746951742148092  10.257085372505067  -7.066410945329649
C  -4.552982613216847  8.636923983428158  -3.364284709140142
H  -3.7662161990235425  8.726419558416143  -2.5862109486339278
C  -5.578950788679399  3.643776716125047  0.9249256271235167
H  -6.071704173943049  3.659460446794511  1.8793732851867366
H  -4.522951530177004  5.542349311784224  -2.972987678434016
154
000 frame 1 XYZ file generated by PYTHON code : coordinates in Angstrom
C  -6.453438323556674  0.8902508301549741  -6.377349467387088
C  -6.1340996872303295  -0.21734871233628272  -7.198206755940898
H  -6.156253694798181  -0.12669285658874685  -8.26168307837533
C  -5.857518908922832  -1.4637558297019084  -6.622573194479932
O  -5.545460860498683  -2.594254524601675  -7.321065927578225
C  -5.469472456555614  -2.487204148841117  -8.742835395876586
C  -4.870997630333143  -3.7599935371528805  -9.317930784792084
H  -4.206052802704225  -3.4802861837168066  -10.164408250911059
H  -4.215365219744614  -4.2326155924007605  -8.545601982799186
O  -5.878717410155035  -4.652610085034961  -9.775858376696503
C  -5.288973515539975  -5.792844563248141  -10.398582499360419
H  -4.675150289536846  -6.332596360174039  -9.711661367818996
C  -6.351326627052468  -6.723118646714977  -10.946465073890176
O  -6.770623378048003  -7.623889306682813  -9.92810789357716
C  -7.6583684844888  -8.652896598129667  -10.372169434260769
H  -7.59762326357974  -9.461646546220987  -9.639097831119836
H  -7.296898125810637  -9.053230274342155  -11.342014465422167
C  -9.095813707258822  -8.211399281504782  -10.52921327798672
H  -9.659056900168757  -9.000612678815603  -10.98872224523286
O  -9.62856968249913  -7.95582473553194  -9.20225785742932
C  -10.869037839368712  -7.366406234301213  -9.131725775160001
C  -11.339035201386864  -7.123337813386032  -7.807258050597978
O  -10.543046659122293  -7.527063583539407  -6.774864970307171
C  -10.941594737602856  -7.100164222388682  -5.448335776140247
H  -10.921522641623977  -5.977463134702115  -5.377459594250551
C  -10.03179538130096  -7.679594812189709  -4.395799491930283
H  -9.927904706000543  -8.785270597357595  -4.56256292241455
O  -8.775590046034383  -7.029519022075099  -4.365729494255065
C  -8.077982641588989  -7.286981636362466  -3.1590131029606194
C  -6.721874180643591  -6.618074867289738  -3.1596185986377225
H  -6.139233801786379  -6.96426610193131  -4.034395722391649
H  -6.20622849414843  -6.960089720153446  -2.2616743563961164
O  -6.84710333362277  -5.205893868824824  -3.177052588247493
C  -5.593864592679497  -4.556614071839921  -3.032756632413799
H  -4.873036034128876  -4.993397247990816  -3.7610211267070404
H  -5.207947360794623  -4.708917975379529  -2.0050115079745536
C  -5.726314482676074  -3.0816735638710355  -3.3019154609841244
H  -4.921854408497067  -2.5200289370821976  -2.8066198576491694
O  -5.637143135294934  -2.86307519352895  -4.729950750354352
H  -6.70005029751884  -2.696767380873175  -2.894614547043219
H  -7.90736179069526  -8.402649948875737  -3.038385376619525
H  -8.665958714031303  -6.90205237443619  -2.2929877266930676
H  -10.527844294299225  -7.559603972693895  -3.4374209921904395
H  -11.95792987473719  -7.491152830808366  -5.250516474242483
C  -12.559824916359958  -6.4510909915929275  -7.653089695650046
H  -12.957584593347224  -6.165253455655113  -6.643018496761002
C  -13.32591397596843  -6.0810288303509825  -8.757627485072751
C  -12.891388587349304  -6.376096305475361  -10.046353467962323
H  -13.459741135103851  -6.089745920735024  -10.894205999534128
H  -14.255216016368276  -5.538185573156303  -8.616338467375252
C  -11.642175299282176  -7.026258979278884  -10.230899239662106
H  -11.318392871561766  -7.251176302867561  -11.246152288072448
H  -9.14603118075119  -7.290014684393061  -11.144005265850772
H  -5.901796154818759  -7.300272860716562  -11.801433675196447
H  -7.201717299388926  -6.123027615886422  -11.37446548013251
H  -4.634485505458084  -5.453683944215193  -11.243795369622147
H  -6.503204668361269  -2.3147329512817634  -9.15584893016929
H  -4.846725988127247  -1.6407608880394449  -9.026451541717984
C  -5.88529413148766  -1.6106068745595237  -5.2114026706881305
C  -6.199963438567953  -0.4926376299973336  -4.407746460861979
H  -6.214281243850608  -0.5928885542617666  -3.2962047353019592
H  -6.699788646117919  1.8462296607477287  -6.814983642416756
C  -6.4817477079472186  0.7437492330482582  -4.995965881223935
H  -6.693878948174432  1.61837199563446  -4.367652244429728
H  -0.4876263772165367  10.882931906596944  1.5697556614080228
C  -1.0614255442789389  -2.964678377568389  6.946903753191036
H  -0.926507023465232  -2.5099869994214328  7.955489852398715
C  -0.46065052421373254  -4.192080570828761  6.7138308980704515
H  0.13289782533434846  -4.660209898708275  7.50925286066909
C  -0.6227521987287492  -4.815433012063946  5.46366882612563
N  -0.16192368737025542  -6.105466898310633  5.224172312563541
H  -0.7469699604789679  -6.669802014300558  4.584445989611465
C  0.8449499907455418  -6.818494938893496  5.775421907689809
N  0.5026344664069253  -8.175028582982119  5.8265642445706955
H  -0.5289421136245943  -8.312493623271397  5.84621379034972
C  1.2796928207968015  -9.30317099524424  5.949576843001777
C  0.7035477291709509  -10.461863085083156  6.500182190088919
H  -0.2877173201090234  -10.412960870319573  6.78044077229651
C  1.447409054638705  -11.63611183385382  6.617602301916225
C  0.7723989286709854  -12.865284732330487  7.143772772310095
F  -0.16900818157130737  -12.584686491517934  8.099287775287678
F  0.10483324037439723  -13.54148153733507  6.152429072726486
F  1.6612167281288404  -13.7452959523212  7.709869500584038
C  2.782128443528266  -11.698462904115496  6.200666838502364
H  3.3793426138879763  -12.61802673931616  6.283856389405731
C  3.3440599605198154  -10.538353583655795  5.641230843986744
C  4.795405689239693  -10.551778424596826  5.207180353734374
F  5.189827022090167  -11.793238111703419  4.8045761393530135
F  5.6200201966088565  -10.208648786512576  6.243310327439795
F  5.045210476162096  -9.702496923438886  4.195563063169104
C  2.6164596507388787  -9.34686356783839  5.516400690420424
H  3.0998009399772757  -8.46271975940754  5.065683685363631
S  2.3195305929349392  -6.207520491278235  6.3192475937892
C  -1.4304837160476576  -4.196456518597767  4.494284445389617
H  -1.578604592029508  -4.6931407464850174  3.524276588584453
C  -2.038799393923379  -2.9788214713080916  4.753291336760322
H  -2.697272316424619  -2.528283243691632  3.9448889946781827
C  -1.8692707062548237  -2.331444712691206  5.984408693889483
C  -2.5125278126367157  -0.9813723385599706  6.257506809900114
H  -2.220193128894407  -0.6594900155943204  7.264863298928416
H  -3.616721092730977  -1.0515779259578943  6.217488127437614
C  -2.0667680296437387  0.07457026474396233  5.254570123297999
H  -2.4596239098584842  -0.20708083622110518  4.264869294755188
H  -0.9559112111994099  0.111795867900498  5.240455298835824
O  -2.578044438229253  1.333776511322296  5.665920457223331
C  -2.4110175398839235  2.3908593867034025  4.805035424418305
C  -1.7213067410530707  2.3246020475110516  3.585082538138152
H  -1.259049421391454  1.4345092101852588  3.2771183941236726
C  -1.6422169198537486  3.4615052694489057  2.7556209393484936
H  -1.114359480612242  3.3688924525626183  1.8041960170508093
C  -2.24594069187762  4.6772270800581355  3.119090306141672
C  -2.9052326859216064  4.741074628073917  4.364823379447712
H  -3.326079180705082  5.659269970930365  4.7020655067509765
N  -2.133312880831328  5.778279830714593  2.2824339062170877
C  -3.0546207086203365  6.917349647806575  2.4176024742176128
H  -2.766851519681488  7.539250374585998  3.2752520855123497
H  -4.098215420723792  6.612418286427972  2.5772664972800263
C  -3.0296693700249016  7.760030352109767  1.1604490900999858
C  -4.04827159337739  7.645962211926421  0.2017641237415726
H  -4.851661064354166  6.9518045803441995  0.4073067126470369
C  -4.022069565743172  8.3643642418041  -0.9808417758150655
C  -5.119501040483499  8.25244094030997  -2.048248977162327
C  -6.250262054974931  7.295245585417745  -1.6197821710860465
H  -7.032555553734669  7.264543975500611  -2.39277825175111
H  -5.877317496304092  6.259931432800799  -1.462677196297201
H  -6.746824227291613  7.637721338457017  -0.7228413868286397
C  -4.5160178411147065  7.718313029462808  -3.361732160489783
H  -4.08920731070604  6.758920690670842  -3.2171306036988914
H  -5.28673245923005  7.64061886167953  -4.163318599389138
H  -3.735275831472789  8.373488194511872  -3.7663839088407545
C  -5.736387190379349  9.65675794629201  -2.2715763011033503
H  -4.9725735448612065  10.361298436280979  -2.6120276596000433
H  -6.537340133359171  9.644660812190764  -3.0180904572301994
H  -6.204498939126576  10.035669882444541  -1.3511503200280106
C  -2.9125354089016913  9.19604671915953  -1.203737710349397
H  -2.88684438686108  9.789144068718915  -2.134976528885896
C  -1.866684971848517  9.338736499006167  -0.2965326199664067
C  -0.6565835311905671  10.257712771653637  -0.5401475064463779
C  -0.6166370143336084  11.34091645860072  0.5481944612354359
H  0.24415542141357305  12.009073712284803  0.383030274139871
H  -1.5190828959436913  11.933152216216666  0.5437684013985555
C  0.642954583607267  9.414923527618829  -0.4846145629067809
H  1.5228565682532764  10.081728490161492  -0.630479185088378
H  0.745014839176986  8.920962788376798  0.4968134527466759
H  0.6552180831067844  8.62335368416775  -1.24851753959029
C  -0.7220511964051095  10.949801564416859  -1.9130187591387715
H  -1.5786951011101582  11.613698271171753  -2.006682749978631
H  0.17153268671072586  11.608790422521345  -2.060950373720912
H  -0.7739031525497158  10.229712838101296  -2.796149641333894
C  -1.9521905915517541  8.609551449024387  0.9059765948556109
H  -1.1654241773584495  8.69904702401237  1.6840503553618258
C  -2.978158767014306  3.6164041817212746  5.19518693111927
H  -3.4709121522779562  3.6320879123907384  6.14963458918249
H  -1.922159508511911  5.51497677738045  1.2972736255617372
