154
000 frame 0 XYZ file generated by PYTHON code : coordinates in Angstrom
C  -3.6780543654637228  -4.219449508693136  4.917912522517797
C  -2.4644360346608276  -4.606148603573971  4.301345448707449
H  -1.5425632710122001  -4.151048751357525  4.588966561921879
C  -2.4715827139769937  -5.537619937383509  3.255548286015305
O  -1.36194216248401  -5.97322599616083  2.5905333756664306
C  -0.09901513911191917  -5.459144970029471  3.014087945560245
C  1.0190750236936368  -6.237343998343531  2.3409012618376557
H  1.842849432727288  -6.369418400089147  3.076335829578837
H  0.6489278923405908  -7.263221341158948  2.095373214646039
O  1.5090347504990205  -5.56112192971363  1.1899780169462868
C  2.620598804539792  -6.262796772969377  0.6351846972353916
H  2.3414658308023295  -7.247174594823678  0.33013276257895297
C  3.1920508767641085  -5.521182385648678  -0.5554579649656448
O  2.4943832746058887  -5.900608131028907  -1.7359429985814188
C  3.0494717117970804  -5.38327261118806  -2.947709815498896
H  2.6918208243833046  -6.023482965693405  -3.758497691856763
H  4.154739782474278  -5.476021230082138  -2.9115512395324497
C  2.6874456641714026  -3.943680509853354  -3.234664760601456
H  3.24879553240961  -3.6010064655845464  -4.082432415473521
O  1.2704968047129905  -3.8974861524525295  -3.551018955885762
C  0.6976133919274512  -2.6524479672983574  -3.664309314226351
C  -0.6975186456187566  -2.6629640772138696  -3.9604351999593215
O  -1.2932017469612007  -3.878527472844829  -4.133625855342148
C  -2.738743042513999  -3.8789535844097496  -4.239330725944537
H  -3.199357839587405  -3.488976182640463  -3.2897857352699775
C  -3.262385501670853  -5.265769779861068  -4.51107825896945
H  -2.6915102673015756  -5.717306202047091  -5.366261620764536
O  -3.219749326061275  -6.0832936361231384  -3.3572188728320786
C  -4.048707921446537  -7.225368652479981  -3.4898832676855283
C  -3.9610892937181355  -8.108120988651592  -2.265326989173765
H  -2.90775357690634  -8.401986410843499  -2.0959747539086955
H  -4.524972207343618  -9.013154288321415  -2.4936234673885975
O  -4.480498359271471  -7.450712270408827  -1.1215309160145808
C  -4.541362508194279  -8.30916472332088  0.006453064771039796
H  -3.5545869945868254  -8.80962792429386  0.13511229551428883
H  -5.321425877422192  -9.08073966373448  -0.15026924066846348
C  -4.857809691134618  -7.526418140484969  1.252489949406804
H  -5.312033666744679  -8.173509820327588  2.01595007953231
O  -3.6259476182180137  -6.9779834140415105  1.77856670097181
H  -5.597263169155231  -6.711981376159638  1.0242147819595175
H  -3.717529912325752  -7.8454104977450765  -4.3810889359031275
H  -5.109283427389066  -6.908747046292057  -3.627057264787331
H  -4.289432987742735  -5.163705890384688  -4.848284573014203
H  -3.0219533489803867  -3.2492658389579727  -5.104331850007513
C  -1.37075644074669  -1.4340676364550071  -4.01118565181787
H  -2.480108622855449  -1.3701838045749186  -4.170610482029515
C  -0.690741649203106  -0.22943729371018318  -3.8371517490343208
C  0.682199832724149  -0.22264261796536555  -3.60982531680418
H  1.208107638273518  0.6863420446617488  -3.464763468464708
H  -1.2359497675833766  0.7090174310990429  -3.854312979481426
C  1.3817897407207274  -1.455464575021025  -3.5202347694574003
H  2.4562330963656667  -1.4316018118538771  -3.343702451447972
H  2.9006212161153275  -3.3134753785521465  -2.347625733660954
H  4.278080906712634  -5.799702109832037  -0.6509643978216673
H  3.1590519067894283  -4.4121355593536205  -0.3673513630432173
H  3.419455102476906  -6.363584963406058  1.415850844070607
H  -0.03672825079567321  -4.366611643069985  2.7468426420508347
H  0.0040407079658284495  -5.54928014006059  4.093890066036515
C  -3.699112599246286  -6.103649870111643  2.823669326572185
C  -4.899794492817631  -5.710382424878314  3.454889585409829
H  -5.870382666197836  -6.156636302994763  3.1314760282025897
H  -3.6842971530103767  -3.477685940766068  5.702677145841999
C  -4.878959643672468  -4.773650960830934  4.492269462502607
H  -5.809728168871571  -4.494482562365117  5.002639547727572
H  -3.3340673420320184  3.0534122459742106  13.607967892235315
C  -3.3721190369829173  -3.8418373562067707  0.43779846814122036
H  -4.412352450114835  -4.160491340564871  0.679805204806408
C  -2.5783286769208296  -4.733548603688899  -0.2668416101506326
H  -2.9858578966497555  -5.714156376038428  -0.5433721533665192
C  -1.2663357611997252  -4.365969263193808  -0.6151380967000039
N  -0.47802248967228866  -5.161663657827805  -1.4393598756137604
H  0.16028099816110775  -4.645755750213538  -2.0689714394976577
C  -0.4781995085925893  -6.492554602895756  -1.6734730266052902
N  -0.12159847216221409  -6.747697224259724  -3.003028188285137
H  -0.33836791537873556  -5.9400072096028715  -3.6227707405855196
C  0.35779749632113855  -7.883850356592346  -3.6121198506292767
C  0.13670097290616834  -8.054319925936426  -4.990427953762332
H  -0.3721755849851759  -7.30695030016573  -5.48643802295231
C  0.6296441741419019  -9.178230368176585  -5.6536093741569715
C  0.4320140347745731  -9.28349102451394  -7.134562638329774
F  -0.7570377727623794  -8.743489536559178  -7.549949004110887
F  1.4077463697417483  -8.608609202391811  -7.826031607020372
F  0.44975038735438644  -10.585122153453984  -7.570824210871454
C  1.3492951051665907  -10.168261573423548  -4.974536893632855
H  1.7467647957725183  -11.057460872766713  -5.484953747551444
C  1.5744333115877143  -9.981948733012924  -3.6000589524955022
C  2.3200917181669882  -11.044778094885935  -2.8194362735049965
F  3.222236179354172  -11.704251785450047  -3.6005318621233253
F  1.4608409383229208  -11.997383783642054  -2.344543805894528
F  2.989310839786917  -10.545134638747932  -1.766082948952512
C  1.0859232766763594  -8.862267679910405  -2.912814075512485
H  1.2927387046840955  -8.757437618747593  -1.8335954083596282
S  -0.8326239788067858  -7.702902918185004  -0.554158792154858
C  -0.8073094643903711  -3.08117009498654  -0.2777153094429183
H  0.2099536477895363  -2.782186206061346  -0.5698362658266506
C  -1.6228227246370506  -2.1966743971822447  0.40957875065259297
H  -1.2129108422799606  -1.1633189142457492  0.6424613938069126
C  -2.924435137742793  -2.554036518585223  0.7858552856637815
C  -3.808431404914306  -1.5943006313607886  1.5659292101555988
H  -4.762187027038523  -2.096271202633238  1.7713815208916093
H  -4.012883794671692  -0.6769931944689063  0.9806776353618316
C  -3.173802465941535  -1.183035141509703  2.8879372924359252
H  -2.274550870396462  -0.5875893851877372  2.6644160753216073
H  -2.9071057506197406  -2.098254487824342  3.4596314895834834
O  -4.118300666234314  -0.42166042609147425  3.6258022712660556
C  -3.6793223197989873  0.1710125779168683  4.784457505398796
C  -2.388865040600393  0.025450511121001718  5.315407372182364
H  -1.6814495843491732  -0.5911306361904103  4.846173886937525
C  -2.0279437338411332  0.7111011892781898  6.492874839931046
H  -1.0093082916846048  0.5902159214166849  6.867292495470949
C  -2.9359291738589794  1.5515608598642583  7.159029384409047
C  -4.241468533753221  1.660859466190014  6.635374796776306
H  -4.975389114896412  2.2423905196637035  7.1424338926054425
N  -2.5476259277966564  2.197854349450946  8.323727383677237
C  -3.2986045916935973  3.362174006924662  8.818651100145157
H  -4.225661076826052  3.036434280905138  9.308134889551813
H  -3.584719289413167  4.062445121155192  8.02157870389363
C  -2.4595665209141777  4.141195116204714  9.808756749548218
C  -1.7987860962596267  5.316303137655157  9.418719234607252
H  -1.9293143297295354  5.646760989419508  8.397300023955395
C  -0.9822713309041071  6.018130915966979  10.288251375472093
C  -0.2431193079662496  7.3014524139816155  9.88454229658432
C  -0.5595028092213666  7.72169118341865  8.434808500321795
H  -0.039234575703417596  8.660021079557971  8.191278997016564
H  -0.24129617652913493  6.948634666099859  7.702160446003655
H  -1.6107986529244291  7.933309647654162  8.299305446971568
C  1.2783034714038455  7.08306008351257  9.995448501804981
H  1.5936022546768007  6.298711936872933  9.355999394403655
H  1.8439609719352101  8.004287061186048  9.723509771553555
H  1.596988390444606  6.831766127043436  11.014196208442076
C  -0.6922221613495583  8.44733519178487  10.826767935940001
H  -0.4531946547483392  8.205120811989246  11.86594730444386
H  -0.20699237803937143  9.39855864672343  10.584525621339987
H  -1.7708945236290092  8.64021676582416  10.731114997861038
C  -0.8116061680850173  5.489681198936469  11.578235361706128
H  -0.17722393174988782  6.048656343262587  12.288683247243936
C  -1.4296134481373712  4.322127610681977  12.016493512035542
C  -1.247273274328957  3.7505746936441335  13.433635150449705
C  -2.6070867155962327  3.724497932951617  14.147527017431623
H  -2.489884555074842  3.320444070955207  15.166193337658251
H  -3.0320112320640353  4.714431282531794  14.215662694820095
C  -0.6833237808347349  2.310374529051691  13.333828416274295
H  -0.5784551280535472  1.882430103981136  14.356569333307819
H  -1.3677092497110053  1.6632251931712716  12.758999115829797
H  0.29200428037175463  2.282679849194392  12.825646218634649
C  -0.27171940583509224  4.591212151274672  14.276055296945147
H  -0.6307272427745718  5.603960723476317  14.445832393185826
H  -0.15889862460065873  4.149514099131296  15.29919582293242
H  0.7702047747117056  4.690093116621608  13.822455130616385
C  -2.2745002158056105  3.658533383278761  11.104978558221905
H  -2.819299406010269  2.7372304540817893  11.399604389130756
C  -4.6060952807546185  0.9744054689249797  5.471100903245565
H  -5.591501598216652  1.03489266114092  5.047617846721922
H  -1.5137080890446437  2.2903233219029  8.406904393493189
154
000 frame 1 XYZ file generated by PYTHON code : coordinates in Angstrom
C  -5.311351755069402  -4.202259557087566  2.236188423608465
C  -4.097733424266506  -4.588958651968402  1.6196213497981153
H  -3.1758606606178788  -4.133858799751955  1.9072424630125466
C  -4.104880103582673  -5.520429985777939  0.5738241871059719
O  -2.9952395520896884  -5.95603604455526  -0.09119072324290256
C  -1.7323125287175978  -5.441955018423902  0.3323638466509118
C  -0.6142223659120417  -6.220154046737961  -0.34082283707167754
H  0.20955204312160935  -6.352228448483578  0.3946117306695043
H  -0.9843694972650878  -7.246031389553379  -0.5863508842632941
O  -0.12426263910665813  -5.54393197810806  -1.4917460819630466
C  0.9873014149341133  -6.245606821363808  -2.0465394016739413
H  0.7081684411966511  -7.229984643218108  -2.3515913363303804
C  1.5587534871584303  -5.503992434043108  -3.237182063874978
O  0.8610858850002105  -5.883418179423337  -4.417667097490752
C  1.4161743221914018  -5.36608265958249  -5.62943391440823
H  1.058523434777626  -6.006293014087835  -6.4402217907660955
H  2.5214423928686  -5.458831278476568  -5.593275338441783
C  1.054148274565724  -3.9264905582477843  -5.916388859510789
H  1.6154981428039314  -3.583816513978977  -6.764156514382856
O  -0.3628005848926882  -3.88029620084696  -6.232743054795096
C  -0.9356839976782276  -2.635258015692788  -6.346033413135684
C  -2.3308160352244354  -2.6457741256083005  -6.642159298868654
O  -2.9264991365668793  -3.8613375212392596  -6.815349954251481
C  -4.372040432119677  -3.86176363280418  -6.92105482485387
H  -4.832655229193083  -3.4717862310348933  -5.97150983417931
C  -4.895682891276532  -5.248579828255498  -7.192802357878783
H  -4.324807656907254  -5.700116250441521  -8.04798571967387
O  -4.853046715666954  -6.066103684517569  -6.038942971741411
C  -5.682005311052215  -7.208178700874411  -6.171607366594861
C  -5.594386683323814  -8.090931037046023  -4.947051088083098
H  -4.541050966512018  -8.38479645923793  -4.777698852818029
H  -6.158269596949296  -8.995964336715845  -5.17534756629793
O  -6.11379574887715  -7.4335223188032575  -3.803255014923914
C  -6.174659897799957  -8.29197477171531  -2.6752710341382935
H  -5.187884384192504  -8.79243797268829  -2.5466118033950442
H  -6.954723267027871  -9.06354971212891  -2.831993339577796
C  -6.491107080740296  -7.5092281888793995  -1.4292341495025291
H  -6.945331056350358  -8.156319868722019  -0.6657740193770234
O  -5.259245007823693  -6.960793462435941  -0.903157397937523
H  -7.23056055876091  -6.694791424554069  -1.6575093169498158
H  -5.350827301931431  -7.828220546139507  -7.062813034812461
H  -6.742580816994744  -6.891557094686488  -6.308781363696664
H  -5.922730377348414  -5.146515938779118  -7.530008671923538
H  -4.655250738586066  -3.232075887352403  -7.786055948916847
C  -3.0040538303523685  -1.4168776848494375  -6.692909750727203
H  -4.113406012461128  -1.352993852969349  -6.852334580938848
C  -2.3240390388087846  -0.2122473421046136  -6.518875847943654
C  -0.9510975568815294  -0.20545266635979598  -6.291549415713513
H  -0.42518975133216075  0.7035319962673183  -6.146487567374042
H  -2.869247157189055  0.7262073827046125  -6.536037078390759
C  -0.25150764888495103  -1.4382746234154555  -6.201958868366733
H  0.8229357067599881  -1.4144118602483076  -6.025426550357306
H  1.267323826509649  -3.296285426946577  -5.029349832570286
H  2.644783517106956  -5.782512158226467  -3.3326884967310004
H  1.52575451718375  -4.394945607748051  -3.0490754619525506
H  1.7861577128712272  -6.346395011800489  -1.2658732548387261
H  -1.6700256404013518  -4.349421691464415  0.06511854314150134
H  -1.6292566816398502  -5.532090188455021  1.4121659671271813
C  -5.332409988851964  -6.0864599185060735  0.14194522766285222
C  -6.533091882423309  -5.693192473272744  0.7731654865004958
H  -7.503680055803514  -6.139446351389194  0.4497519292932568
H  -5.317594542616056  -3.4604959891604983  3.0209530469326658
C  -6.512257033278146  -4.756461009225364  1.8105453635932744
H  -7.44302555847725  -4.477292610759547  2.3209154488182397
H  -12.224692167830007  8.651339515536417  -3.9569004163280783
C  -5.389218768534446  -4.47190304389116  -2.5229946310129705
H  -5.894596478012952  -4.554546082459693  -1.5330670199862229
C  -4.107857402615553  -4.989713373540059  -2.631416201690344
H  -3.6333611700997244  -5.440245157493393  -1.7504989261005424
C  -3.4394856827958478  -4.929219965844692  -3.86728440533281
N  -2.2144170718876364  -5.556003747792709  -4.067928153823452
H  -2.068170826824122  -5.94238962379061  -5.016253532440777
C  -1.2173606996613082  -5.877640129186341  -3.2144011564568613
N  -0.6034893477394411  -7.069340155265483  -3.6181238279800416
H  -1.2469341255435675  -7.664089538525211  -4.179982325690409
C  0.629249914125781  -7.6015287695505265  -3.3201535628094763
C  0.7989079646307191  -8.995291334177514  -3.3996446518952865
H  -0.015478807101687142  -9.557719640100235  -3.6894571501730353
C  2.039587223776343  -9.574573125507523  -3.1329522066760505
C  2.192395916467649  -11.055256361106633  -3.299044673924623
F  1.0578437851584819  -11.745951089053179  -2.9618149376827474
F  2.459937209523849  -11.394828539487438  -4.602409853056301
F  3.2089986553223477  -11.563252483935578  -2.5287582698845466
C  3.14600807322815  -8.795716762674783  -2.7746027213046767
H  4.1306085120087985  -9.238275147660477  -2.565110560356575
C  2.9681443779100176  -7.403329854447412  -2.7096989398249107
C  4.130448619208023  -6.525318017157403  -2.2936117579082618
F  5.327542897480302  -7.069000159768578  -2.65452104386454
F  4.173360913210404  -6.380829259529602  -0.9339890563292756
F  4.070787411861908  -5.293172007387158  -2.827753867551675
C  1.7301089495164113  -6.800082215064322  -2.9704551467428995
H  1.6407527426127082  -5.701435311261019  -2.911587977898048
S  -0.7384777730395975  -4.993923708478554  -1.8604659529795546
C  -4.108198177826002  -4.383713353373981  -4.976569903250372
H  -3.596968567941511  -4.356909740686262  -5.949953748771536
C  -5.3965317177371235  -3.8891128839324804  -4.852736516462432
H  -5.901439773824033  -3.475834830207561  -5.782443317611522
C  -6.069265853149798  -3.9191694982822733  -3.6239110717596423
C  -7.471456232876799  -3.34939784403399  -3.4815028476715217
H  -7.780522942546473  -3.45627033952176  -2.4341772384047173
H  -8.190877276403285  -3.89965588987915  -4.118230862107177
C  -7.528522532036947  -1.8762212757444932  -3.8637237250207472
H  -7.321376524084231  -1.7950456242579005  -4.942459957983859
H  -6.766693801688128  -1.3213775770233016  -3.2743568609295286
O  -8.821875800813523  -1.3783070887775732  -3.554641504276022
C  -9.119197715682883  -0.10294673505714691  -3.968768147948084
C  -8.218304639858657  0.7556288579647346  -4.616545642743251
H  -7.227873135045752  0.45915916053997297  -4.795263731981336
C  -8.638306593069125  2.0339734068113504  -5.036360189263792
H  -7.916508058761143  2.6684765367581154  -5.554850928565834
C  -9.954141840626676  2.4792458517184217  -4.824506595038017
C  -10.83997901061404  1.6207792272154267  -4.139728605022391
H  -11.828268465265733  1.9434777038823174  -3.909345534411798
N  -10.325351010138498  3.7501431587851863  -5.239259415938362
C  -11.745555963459221  4.099136422912243  -5.39982185141996
H  -12.204514868217458  4.2845381005496455  -4.419966036772889
H  -12.332849510166216  3.307367431089827  -5.885366712506771
C  -11.884028391294617  5.338699743913849  -6.257420901010079
C  -12.234046375493303  5.236221158714343  -7.61264208039673
H  -12.416697203935396  4.246124172180758  -8.007463365968663
C  -12.314712932607105  6.348407551099828  -8.432324379587486
C  -12.688294219949622  6.262689025113587  -9.918705944565446
C  -13.000667962383627  4.817161431965688  -10.356084322764431
H  -13.294757677319271  4.798286987963537  -11.416086041022233
H  -12.122174123336674  4.1481994769753845  -10.228086318535308
H  -13.844087984223606  4.408876936531221  -9.81727745531819
C  -11.51926984877915  6.778435139428805  -10.78016437950506
H  -10.647769550025558  6.197050666126706  -10.618950787328625
H  -11.766318999982623  6.743808669338432  -11.866601653244452
H  -11.266624357782447  7.82440386728572  -10.568799064979006
C  -13.954860332459841  7.122967653749035  -10.16007875288531
H  -13.765435114633181  8.166878499391771  -9.895382799352502
H  -14.282113266359644  7.096468780513919  -11.204664158580083
H  -14.808829215974963  6.7438009918721304  -9.579685231365984
C  -11.999637758369648  7.592323532961134  -7.861495989772132
H  -12.077175485547645  8.490812514017385  -8.498940641174654
C  -11.633065959248572  7.753480749578112  -6.52851509958832
C  -11.296916364566435  9.119231585371626  -5.90406397755355
C  -12.296732205672548  9.42035198657435  -4.777516607002678
H  -12.069375633354024  10.398695954299477  -4.323832783587536
H  -13.310131028922012  9.439219746192094  -5.148782259229243
C  -9.859085656296621  9.075956276538083  -5.327048352554595
H  -9.62332405610492  10.053001123543336  -4.847535387687936
H  -9.770643447027542  8.28684803999981  -4.5608234350297
H  -9.108905940343188  8.860271997058796  -6.102284867190349
C  -11.36697335413318  10.260116899561933  -6.934365441594057
H  -12.366828305030403  10.39639355769679  -7.34067727935202
H  -11.11594077185546  11.238761343255362  -6.450754100405629
H  -10.671276829078984  10.124581757647029  -7.828106525210094
C  -11.593285605485178  6.595968880380727  -5.726246905047827
H  -11.33532332366186  6.658142272852458  -4.6482860728937245
C  -10.423765482922128  0.3539693553370933  -3.7135074159373653
H  -11.072440892186219  -0.32263198620043276  -3.1886712051777146
H  -9.706496566653584  4.1257470753855445  -5.987855367524613
