20
000 frame 0 XYZ file generated by PYTHON code : coordinates in Angstrom
SI  0.0  5.0  0.0
SI  0.0  4.755282581475767  1.545084971874737
SI  0.0  4.045084971874737  2.938926261462366
SI  0.0  2.938926261462366  4.045084971874737
SI  0.0  1.5450849718747373  4.755282581475767
SI  0.0  3.061616997868383e-16  5.0
SI  0.0  -1.5450849718747368  4.755282581475768
SI  0.0  -2.938926261462365  4.045084971874737
SI  0.0  -4.045084971874736  2.9389262614623664
SI  0.0  -4.755282581475767  1.5450849718747375
C  0.0  -5.0  6.123233995736766e-16
C  0.0  -4.755282581475768  -1.5450849718747364
C  0.0  -4.045084971874738  -2.938926261462365
C  0.0  -2.9389262614623664  -4.045084971874736
C  0.0  -1.5450849718747377  -4.755282581475767
C  0.0  -9.184850993605148e-16  -5.0
C  0.0  1.5450849718747361  -4.755282581475768
C  0.0  2.9389262614623646  -4.045084971874738
C  0.0  4.045084971874736  -2.938926261462367
C  0.0  4.755282581475767  -1.5450849718747381
20
000 frame 1 XYZ file generated by PYTHON code : coordinates in Angstrom
SI  -8.14  3.061616997868383e-16  0.0
SI  -7.895282581475767  2.9117707962227305e-16  1.545084971874737
SI  -7.185084971874737  2.4769001815427294e-16  2.938926261462366
SI  -6.078926261462366  1.7995733195149918e-16  4.045084971874737
SI  -4.685084971874737  9.460916826085377e-17  4.755282581475767
SI  -3.1400000000000006  1.8746997283273223e-32  5.0
SI  -1.5949150281252633  -9.460916826085373e-17  4.755282581475768
SI  -0.2010737385376351  -1.7995733195149913e-16  4.045084971874737
SI  0.9050849718747362  -2.4769001815427284e-16  2.9389262614623664
SI  1.6152825814757672  -2.9117707962227305e-16  1.5450849718747375
C  1.8599999999999999  -3.061616997868383e-16  6.123233995736766e-16
C  1.615282581475768  -2.911770796222731e-16  -1.5450849718747364
C  0.905084971874738  -2.47690018154273e-16  -2.938926261462365
C  -0.20107373853763377  -1.799573319514992e-16  -4.045084971874736
C  -1.5949150281252624  -9.460916826085379e-17  -4.755282581475767
C  -3.1399999999999992  -5.624099184981965e-32  -5.0
C  -4.685084971874736  9.460916826085369e-17  -4.755282581475768
C  -6.078926261462365  1.799573319514991e-16  -4.045084971874738
C  -7.185084971874737  2.4769001815427284e-16  -2.938926261462367
C  -7.895282581475767  2.9117707962227305e-16  -1.5450849718747381
