154
000 frame 0 XYZ file generated by PYTHON code : coordinates in Angstrom
C  -1.05161747684917  -1.2098304296896836  4.112002134840338
C  -0.558875798547308  -1.3335573513648513  2.791222862339982
H  -0.6561307696815069  -0.5260486595849887  2.099730016461618
C  -0.004665216448466847  -2.5442268895546336  2.3570437216409985
O  0.4921850235243119  -2.771201249603349  1.1060752560644465
C  0.4682886696446531  -1.6822180687068005  0.1829246521728658
C  1.280678269816664  -2.0418928572561135  -1.0497784081734962
H  1.8285471937930162  -1.133133232467976  -1.3828062065624305
H  2.0591238001074967  -2.7916039312223413  -0.7639933398944284
O  0.45182604418062566  -2.5141748126128087  -2.104252152904596
C  1.226229332243868  -2.7509247260736363  -3.278972070758421
H  1.9728192740667567  -3.4940880870177256  -3.1049511704534503
C  0.346760102378445  -3.1955563392900492  -4.4291963626390025
O  0.17429309983171226  -4.60705039991607  -4.382414487950278
C  -0.5088442178427215  -5.160953094956495  -5.509647046654207
H  -0.2459699671266662  -6.22136149767691  -5.549541701472004
H  -0.1263869040156378  -4.686812257932692  -6.437248322390564
C  -2.0122835683983675  -5.007715096337946  -5.464706498329182
H  -2.4276161123330926  -5.3274397380201775  -6.40093521145635
O  -2.513639801261819  -5.863815795708987  -4.403720406923863
C  -3.842251434349394  -5.733763175459132  -4.07352707443477
C  -4.279843553674451  -6.585325668716247  -3.0163851785007116
O  -3.3641532431832943  -7.445587336216236  -2.483572971585835
C  -3.769064938295636  -8.159534438801806  -1.2889645034007509
H  -3.9733590496602083  -7.435543302854821  -0.4523135572943104
C  -2.70537409862165  -9.133929744486249  -0.8525897876382479
H  -2.388488848070147  -9.756227528346049  -1.7320506806027811
O  -1.6073866361529998  -8.481588216936867  -0.24396129200094674
C  -0.8081781907951471  -9.382142349246838  0.5039529097358169
C  0.3820180402761453  -8.677173860171454  1.1146239759723677
H  0.9748519210968105  -8.192814717204783  0.31556364743864296
H  1.0038582146927557  -9.451134727908222  1.565698103415929
O  -0.027811045654498434  -7.71865992963264  2.0756300230205866
C  1.0735816633907351  -7.14788495751292  2.764210411288745
H  1.8277836241282155  -6.80388726933972  2.020175788176316
H  1.5370827015960216  -7.906635234996397  3.425915355889505
C  0.6304218003965936  -5.970254587738543  3.5901855915581344
H  1.3296856603359029  -5.788196219270066  4.418317970520084
O  0.596451098106541  -4.797934972624183  2.7419319291429756
H  -0.37779793325285416  -6.1694988529955115  4.044061051080492
H  -0.4085627091658047  -10.201705525305966  -0.17206630149871038
H  -1.414557445997781  -9.834722871758373  1.3233193846993965
H  -3.1631645637411427  -9.816709935340217  -0.14323037560766794
H  -4.672819020162769  -8.7512419896015  -1.5299051868194378
C  -5.601517178306682  -6.453809714788692  -2.5670594802857147
H  -5.994067234656435  -7.041422756036748  -1.6948352823708794
C  -6.4850260982831704  -5.56039710322257  -3.171268113552596
C  -6.069645877633562  -4.776119282390037  -4.243209977297465
H  -6.729033664421811  -4.085190227734039  -4.703318513122879
H  -7.4961468919349645  -5.455801236254598  -2.790560724665599
C  -4.726295232924999  -4.865931630441657  -4.695587331772295
H  -4.418711115866135  -4.246267295458251  -5.536758977835097
H  -2.281349243568483  -3.95145978061929  -5.261312965389083
H  0.8573627463407041  -2.9077268945810197  -5.389714499981183
H  -0.6294413688951715  -2.6362719336075515  -4.402937465767019
H  1.751882644169228  -1.8041585149591697  -3.5706767399937487
H  -0.5996260997801963  -1.460091272078293  -0.09840524436312004
H  0.8902174558168414  -0.7888481676002961  0.6396344014389814
C  0.07387389381066511  -3.644317998402234  3.249999543603816
C  -0.41733110915966165  -3.5005108801290534  4.56634769891394
H  -0.35120405138787303  -4.355074777809545  5.281279871946113
H  -1.5099363685699205  -0.29018518117834446  4.444122726649699
C  -0.9752737844117438  -2.288790762847299  4.9840692144952214
H  -1.3262947366734892  -2.1698298871581834  6.0172077662995545
H  -5.152507914115498  8.79689318170778  7.514661049599029
C  -2.6154012365423345  -4.5967085895700235  1.5839107626415272
H  -2.521465024433875  -4.9709520394562325  2.6295258947081432
C  -1.791571410538327  -5.165813948473639  0.6251651066919552
H  -1.0734966152459613  -5.939957652902294  0.9238470825722442
C  -1.890868410792844  -4.741999897533337  -0.7120978371488706
N  -1.1915100228622355  -5.374896445909093  -1.7339827273587043
H  -1.6834691381477387  -5.417298372424146  -2.6429279064596525
C  -0.03277184844264336  -6.070168827914574  -1.7353481686508077
N  -0.08955097068821805  -7.098928429039512  -2.6831924589957454
H  -1.0692164419929266  -7.393913862862352  -2.874692173319955
C  0.905656893581106  -7.81890123094751  -3.3019473048383494
C  0.6069908054316999  -9.106187522449773  -3.782955979812786
H  -0.3570455992569349  -9.44962817929294  -3.655578497124644
C  1.5787923568535427  -9.859866015222924  -4.441399411219726
C  1.1964448298838248  -11.196198118961036  -4.999419953459888
F  0.2704809887869155  -11.847423500436935  -4.227093527406939
F  0.6275802798215184  -11.082545883501727  -6.244058331082455
F  2.274425868760411  -12.037880952551202  -5.119458368841357
C  2.8740113476799625  -9.36714919103892  -4.638469400465301
H  3.648928893293318  -9.948526068385512  -5.158744940592063
C  3.158017874436016  -8.075242647045226  -4.164225716783793
C  4.556421295783603  -7.515776226276925  -4.326859273936421
F  5.17222456972205  -8.012447286052577  -5.437257707897851
F  5.34880697132647  -7.8610625383479045  -3.266578810758299
F  4.573977198034344  -6.175054200628837  -4.422813860003484
C  2.198219392072425  -7.3015687207216  -3.497255878781504
H  2.467211372551529  -6.28984063461693  -3.1472208966132627
S  1.3142950921057897  -5.76709624093555  -0.7673699821420317
C  -2.858312959977521  -3.780575222724912  -1.0511875304031895
H  -2.95456444312409  -3.464716531373179  -2.100243867063421
C  -3.686139323465112  -3.23780986230437  -0.08171503592099949
H  -4.464823001057887  -2.478347857636739  -0.40875452071114604
C  -3.585478280330307  -3.630376714606161  1.2596444279936867
C  -4.473573992086594  -3.0130016605455876  2.3279101957947095
H  -4.198853630141796  -3.448991210144733  3.2965570501834285
H  -5.541091891517491  -3.2329491058626374  2.133483410226484
C  -4.305879233842592  -1.5011153822536292  2.4032554843577247
H  -4.68609335958978  -1.0681679158958088  1.4645518435481737
H  -3.228068316795407  -1.264446736275711  2.5370442132892257
O  -5.039064842780883  -1.0195938625352534  3.5198525126147273
C  -5.136486562763972  0.34250560784046336  3.66695543977897
C  -4.514316308305819  1.2815303688367772  2.8305866583988264
H  -3.8983690001058977  0.9715376543467693  2.0398259909890326
C  -4.712217670926152  2.660328539483735  3.046367415257113
H  -4.2285063608472635  3.3627542762527005  2.3644279416894687
C  -5.529547156733661  3.1290089925640006  4.088904243779179
C  -6.120100399942471  2.175675258014415  4.9450555097549564
H  -6.699684486503391  2.4918199377532817  5.780556281939512
N  -5.687772335419962  4.494353192874537  4.278102876417147
C  -6.812346373372518  5.013785559700886  5.071879893586848
H  -6.610999271036256  4.888297286849796  6.143722472318892
H  -7.762261530112054  4.503069828165418  4.861175610047873
C  -7.026505748645683  6.482260205686564  4.773742432034501
C  -8.050857190173806  6.895007878821789  3.9077272027770333
H  -8.684496241661652  6.128417302678291  3.4830182949216577
C  -8.234574720931406  8.225914488829222  3.575642573832042
C  -9.342283440582523  8.70246257087366  2.6258404267694466
C  -10.230657783766027  7.53903912900429  2.1403879115712505
H  -11.030884357315895  7.920946541306987  1.4890563468596105
H  -9.64756089540641  6.785547914468002  1.5677676011067185
H  -10.737384319058126  7.052103596008428  2.961660343835279
C  -8.714547673932163  9.370761994936046  1.3872741762135274
H  -8.094857018628002  8.687926697470367  0.8645601558444076
H  -9.495458999987278  9.742669055730385  0.6841092849670125
H  -8.105854746314069  10.246796285868776  1.6414639890266511
C  -10.242301724248367  9.71161064007164  3.383545601849788
H  -9.656720210890505  10.573213751496656  3.7158558247020212
H  -11.06312154286693  10.084244355430826  2.761971565744778
H  -10.727338872261587  9.238279251897879  4.249907658572752
C  -7.330437346888364  9.154533732713027  4.116610497758362
H  -7.475716089604536  10.222262926308165  3.87478682671559
C  -6.288019276445803  8.80263093910111  4.969085468790796
C  -5.3043753774840035  9.823955025486462  5.56704273305848
C  -5.426495414998577  9.807543725638741  7.098131089724102
H  -4.729285624176541  10.53824076420645  7.539330916559322
H  -6.42921512281804  10.053562281560861  7.41309046731439
C  -3.859833541643083  9.44193552344608  5.155294127648082
H  -3.1426272745597723  10.161567197173401  5.611230826417248
H  -3.6070576055256205  8.429998213265108  5.515435299930013
H  -3.728369987220357  9.439296482774505  4.063052699396094
C  -5.582618473874203  11.254266184313508  5.07223048889681
H  -6.559892182860068  11.620623633650894  5.37896959127597
H  -4.850560711856923  11.972469425779085  5.522694439598421
H  -5.534755507268952  11.373066786175222  3.9387702524374197
C  -6.1590269355253415  7.4395619858559145  5.3014323726917265
H  -5.366079841214781  7.095225985269031  5.9979072462927565
C  -5.91860535936228  0.8057508782518932  4.739112807769535
H  -6.352227183978982  0.05477116204734678  5.373166266985935
H  -5.480904351751871  5.046079727521794  3.4194652977979136
154
000 frame 1 XYZ file generated by PYTHON code : coordinates in Angstrom
C  1.232109259644282  -0.5652754301279677  2.725235670105821
C  1.4890451514674274  -1.3011960486731016  1.5441491406581633
H  1.7420474469015468  -0.7977500690763746  0.6373839247702482
C  1.3414603122729805  -2.6938688854788815  1.5362301071063653
O  1.5572665521403564  -3.495611099813568  0.45274650707565733
C  1.9923506809101532  -2.8664860862621127  -0.7528927257324846
C  2.418659261548701  -3.9262307475232907  -1.7549415758267786
H  3.3111545980203188  -3.5495545130547885  -2.3012739076239237
H  2.751401576991014  -4.837073194844225  -1.1987349316906797
O  1.3800079205463764  -4.2203633752402165  -2.6804957475374342
C  1.8383348774022563  -5.14353523127129  -3.6671101526323207
H  2.137297896272754  -6.066643155433248  -3.2216166400858266
C  0.7612811507299018  -5.4186826179184395  -4.695909698154252
O  -0.07524276021394916  -6.476426432667532  -4.242418063469971
C  -1.0334164312533947  -6.93052097823635  -5.201500641554944
H  -1.3274602257069748  -7.939939372154694  -4.901878898860469
H  -0.5468277336200654  -7.005640158834517  -6.196043654713719
C  -2.25978821014183  -6.054369446636155  -5.320673505597904
H  -2.8549451409716946  -6.391136584393721  -6.147489866373153
O  -3.0253678160401947  -6.194147321389434  -4.094171170250713
C  -4.087507337418877  -5.337856005368794  -3.9216167971886495
C  -4.795834539212228  -5.506328639593498  -2.6952057414354345
O  -4.377428275860572  -6.501539600979665  -1.8603889529963924
C  -4.978568399167603  -6.532412363231451  -0.5418895168607726
H  -4.731784191947051  -5.590260151006289  0.02143172235767299
C  -4.495587224885329  -7.722383773110875  0.2467831247729566
H  -4.598443187353879  -8.649181649037445  -0.37898728378800023
O  -3.1724114404493506  -7.545373546432221  0.7152143418571029
C  -2.856881408981133  -8.452476164013374  1.757669702019113
C  -1.4277372685038494  -8.276965759486643  2.219416292506076
H  -0.7427932535025985  -8.408637258376373  1.36030773652795
H  -1.2290096442619265  -9.081702262248166  2.927988792848571
O  -1.2342297351441633  -7.004916095454369  2.814971448594398
C  0.05866196733890239  -6.872605492173507  3.3841092784332596
H  0.8195946822739879  -7.1820162552816615  2.631786933654659
H  0.14496489254192624  -7.524572170555015  4.276230282047294
C  0.31918765521743353  -5.444892604672455  3.783109563174754
H  1.0844297572664194  -5.392289049179728  4.570228247766206
O  0.7925594609632554  -4.720279459633213  2.6229903934521044
H  -0.6156412212436038  -4.978664768557575  4.196552204759795
H  -2.967468938040807  -9.520909718994858  1.3907930965040793
H  -3.5363379253091174  -8.28208941958054  2.6255369444774144
H  -5.167887790905295  -7.846159319147722  1.0903726206450808
H  -6.0727675490632596  -6.6456128525045015  -0.663772857342995
C  -5.841289994993716  -4.616798398145893  -2.4092511317693917
H  -6.396790472172654  -4.646156509374258  -1.4342039505662272
C  -6.221497947422802  -3.6314534763441833  -3.31940467743458
C  -5.566613732377991  -3.511608394964567  -4.541474891685719
H  -5.839321558302587  -2.759163234254297  -5.2366955749769435
H  -7.016269337955839  -2.9366779786222206  -3.0666812807132757
C  -4.482187945639881  -4.378514660067532  -4.84113590671063
H  -3.9821684106752664  -4.271997668986378  -5.802799158853551
H  -1.959502446922036  -4.996675197587068  -5.464032825896643
H  1.2651913917247857  -5.719052907858508  -5.656122226383211
H  0.18973464021916464  -4.47401953553783  -4.913634606539807
H  2.7335933819351497  -4.712537703573698  -4.187228041269046
H  1.1505239423478173  -2.2445430971541915  -1.1693581381764548
H  2.833916156233892  -2.205707124270786  -0.5532525744319683
C  0.945854309888492  -3.36787181429828  2.7206940712704792
C  0.6997086981072251  -2.61757418622672  3.8916770409623953
H  0.3986150798468009  -3.137327988459103  4.832410198203467
H  1.3120036470846577  0.5116164602000479  2.7305667603037254
C  0.8431939813601956  -1.2271068452508138  3.8833413801314953
H  0.6829388404512089  -0.6501618363297172  4.803230184601414
H  -5.152507914115498  8.79689318170778  7.514661049599029
C  -2.6154012365423345  -4.5967085895700235  1.5839107626415272
H  -2.521465024433875  -4.9709520394562325  2.6295258947081432
C  -1.791571410538327  -5.165813948473639  0.6251651066919552
H  -1.0734966152459613  -5.939957652902294  0.9238470825722442
C  -1.890868410792844  -4.741999897533337  -0.7120978371488706
N  -1.1915100228622355  -5.374896445909093  -1.7339827273587043
H  -1.6834691381477387  -5.417298372424146  -2.6429279064596525
C  -0.03277184844264336  -6.070168827914574  -1.7353481686508077
N  -0.08955097068821805  -7.098928429039512  -2.6831924589957454
H  -1.0692164419929266  -7.393913862862352  -2.874692173319955
C  0.905656893581106  -7.81890123094751  -3.3019473048383494
C  0.6069908054316999  -9.106187522449773  -3.782955979812786
H  -0.3570455992569349  -9.44962817929294  -3.655578497124644
C  1.5787923568535427  -9.859866015222924  -4.441399411219726
C  1.1964448298838248  -11.196198118961036  -4.999419953459888
F  0.2704809887869155  -11.847423500436935  -4.227093527406939
F  0.6275802798215184  -11.082545883501727  -6.244058331082455
F  2.274425868760411  -12.037880952551202  -5.119458368841357
C  2.8740113476799625  -9.36714919103892  -4.638469400465301
H  3.648928893293318  -9.948526068385512  -5.158744940592063
C  3.158017874436016  -8.075242647045226  -4.164225716783793
C  4.556421295783603  -7.515776226276925  -4.326859273936421
F  5.17222456972205  -8.012447286052577  -5.437257707897851
F  5.34880697132647  -7.8610625383479045  -3.266578810758299
F  4.573977198034344  -6.175054200628837  -4.422813860003484
C  2.198219392072425  -7.3015687207216  -3.497255878781504
H  2.467211372551529  -6.28984063461693  -3.1472208966132627
S  1.3142950921057897  -5.76709624093555  -0.7673699821420317
C  -2.858312959977521  -3.780575222724912  -1.0511875304031895
H  -2.95456444312409  -3.464716531373179  -2.100243867063421
C  -3.686139323465112  -3.23780986230437  -0.08171503592099949
H  -4.464823001057887  -2.478347857636739  -0.40875452071114604
C  -3.585478280330307  -3.630376714606161  1.2596444279936867
C  -4.473573992086594  -3.0130016605455876  2.3279101957947095
H  -4.198853630141796  -3.448991210144733  3.2965570501834285
H  -5.541091891517491  -3.2329491058626374  2.133483410226484
C  -4.305879233842592  -1.5011153822536292  2.4032554843577247
H  -4.68609335958978  -1.0681679158958088  1.4645518435481737
H  -3.228068316795407  -1.264446736275711  2.5370442132892257
O  -5.039064842780883  -1.0195938625352534  3.5198525126147273
C  -5.136486562763972  0.34250560784046336  3.66695543977897
C  -4.514316308305819  1.2815303688367772  2.8305866583988264
H  -3.8983690001058977  0.9715376543467693  2.0398259909890326
C  -4.712217670926152  2.660328539483735  3.046367415257113
H  -4.2285063608472635  3.3627542762527005  2.3644279416894687
C  -5.529547156733661  3.1290089925640006  4.088904243779179
C  -6.120100399942471  2.175675258014415  4.9450555097549564
H  -6.699684486503391  2.4918199377532817  5.780556281939512
N  -5.687772335419962  4.494353192874537  4.278102876417147
C  -6.812346373372518  5.013785559700886  5.071879893586848
H  -6.610999271036256  4.888297286849796  6.143722472318892
H  -7.762261530112054  4.503069828165418  4.861175610047873
C  -7.026505748645683  6.482260205686564  4.773742432034501
C  -8.050857190173806  6.895007878821789  3.9077272027770333
H  -8.684496241661652  6.128417302678291  3.4830182949216577
C  -8.234574720931406  8.225914488829222  3.575642573832042
C  -9.342283440582523  8.70246257087366  2.6258404267694466
C  -10.230657783766027  7.53903912900429  2.1403879115712505
H  -11.030884357315895  7.920946541306987  1.4890563468596105
H  -9.64756089540641  6.785547914468002  1.5677676011067185
H  -10.737384319058126  7.052103596008428  2.961660343835279
C  -8.714547673932163  9.370761994936046  1.3872741762135274
H  -8.094857018628002  8.687926697470367  0.8645601558444076
H  -9.495458999987278  9.742669055730385  0.6841092849670125
H  -8.105854746314069  10.246796285868776  1.6414639890266511
C  -10.242301724248367  9.71161064007164  3.383545601849788
H  -9.656720210890505  10.573213751496656  3.7158558247020212
H  -11.06312154286693  10.084244355430826  2.761971565744778
H  -10.727338872261587  9.238279251897879  4.249907658572752
C  -7.330437346888364  9.154533732713027  4.116610497758362
H  -7.475716089604536  10.222262926308165  3.87478682671559
C  -6.288019276445803  8.80263093910111  4.969085468790796
C  -5.3043753774840035  9.823955025486462  5.56704273305848
C  -5.426495414998577  9.807543725638741  7.098131089724102
H  -4.729285624176541  10.53824076420645  7.539330916559322
H  -6.42921512281804  10.053562281560861  7.41309046731439
C  -3.859833541643083  9.44193552344608  5.155294127648082
H  -3.1426272745597723  10.161567197173401  5.611230826417248
H  -3.6070576055256205  8.429998213265108  5.515435299930013
H  -3.728369987220357  9.439296482774505  4.063052699396094
C  -5.582618473874203  11.254266184313508  5.07223048889681
H  -6.559892182860068  11.620623633650894  5.37896959127597
H  -4.850560711856923  11.972469425779085  5.522694439598421
H  -5.534755507268952  11.373066786175222  3.9387702524374197
C  -6.1590269355253415  7.4395619858559145  5.3014323726917265
H  -5.366079841214781  7.095225985269031  5.9979072462927565
C  -5.91860535936228  0.8057508782518932  4.739112807769535
H  -6.352227183978982  0.05477116204734678  5.373166266985935
H  -5.480904351751871  5.046079727521794  3.4194652977979136
