154
XYZ file generated by PYTHON : coordinates in Angstrom
C  2.4306314094276655  5.318124372733951  3.069138199909308
C  1.9017466231747058  4.438420490921625  2.0949911049878027
H  0.9814623763610674  4.665433492924562  1.6038361654834072
C  2.5440570483861626  3.224787138476759  1.8194679122667214
O  2.116016289943283  2.304661236386017  0.906533601179211
C  0.940690820132013  2.6192357745407064  0.15932858150430546
C  0.767798907958989  1.6123023340005538  -0.965434986540128
H  0.3892082949825118  2.1524362555592225  -1.8608881804880932
H  1.7710281485955137  1.2054154064462537  -1.2441666894838799
O  -0.1425824644430117  0.5797271076720402  -0.6091271219333312
C  -0.36141894457353385  -0.29515140379961197  -1.7147563747204473
H  0.5474877855166328  -0.7648015640418797  -2.020188656912401
C  -1.3768384034547612  -1.3644975289159207  -1.3689218671770484
O  -0.7202776050712622  -2.4684799910896382  -0.75703990536721
C  -1.5556641383493717  -3.6061842614146182  -0.529232168280512
H  -0.8935580340246506  -4.470432862153189  -0.42998349841544553
H  -2.1937490053888444  -3.7748689985493553  -1.4213758892661945
C  -2.439903981617983  -3.4959563877315434  0.6921609434337979
H  -3.1210037802535364  -4.3248193910839845  0.7105554482125663
O  -1.585131347301597  -3.555351220881948  1.865103381607561
C  -2.173359975724448  -3.287667884987439  3.0789744228709632
C  -1.2879990788176328  -3.3440850350353486  4.195732104002173
O  0.009968894956477231  -3.687260998478114  3.950911503752491
C  0.9332489562083643  -3.5502803529561957  5.059763869775897
H  0.9980753541744959  -2.474455626876466  5.382692269535129
C  2.3085818274990095  -4.0387287788847885  4.684018031397957
H  2.22624978025843  -5.056104664494185  4.215733932323954
O  2.984130095316647  -3.123218947557975  3.843166755250939
C  4.3790047926457305  -3.3723568131180865  3.8062555075523257
C  5.080216946131787  -2.4111735073062808  2.873037977382559
H  4.638072081956825  -2.4889651492589735  1.8615986179611794
H  6.117198056443661  -2.74218694942183  2.8077021238986384
O  4.9924574169082225  -1.0786242972563163  3.349328146292887
C  5.764021881233408  -0.18014045293191427  2.568042041000833
H  5.519382148739112  -0.3327884380083297  1.4921273039625993
H  6.843341808595795  -0.37655427138387637  2.725771987514793
C  5.457176679784588  1.2454398049395736  2.940876992581107
H  6.295556950737366  1.906768406817296  2.680720435778461
O  4.282746419880415  1.6713351397543228  2.209885684287265
H  5.296428906923587  1.3327363179362073  4.0493659251616
H  4.576884778442721  -4.42290897710511  3.424729664874146
H  4.810687729635859  -3.257328581938512  4.828167783011637
H  2.8684062501703678  -4.169833746759066  5.605082512090071
H  0.575682184851577  -4.191329634824628  5.888101663993081
C  -1.7950154967487  -3.003460466913632  5.457841629678376
H  -1.1408247642163887  -2.95896658097805  6.369002682399765
C  -3.138862063614211  -2.675867171390012  5.632773662620906
C  -4.011864021142492  -2.6826746424941037  4.549024140039917
H  -5.033175374045855  -2.4244007892792574  4.667737297899536
H  -3.5045499242480567  -2.3898873363618893  6.613962529882099
C  -3.516127644059667  -2.991252206955226  3.2542933516166483
H  -4.213557342948044  -2.9936957222599285  2.4177842604534177
H  -2.9961336359726154  -2.5369340462494634  0.6741254524430954
H  -1.8700395824607072  -1.698460902884675  -2.3235825416057176
H  -2.1879961756885464  -0.927372721193399  -0.7228546418516929
H  -0.7446942054403901  0.2995983322026902  -2.5848955031547853
H  0.049306984870439496  2.5997824564783465  0.847794416438656
H  1.017760759443319  3.6183764287636055  -0.2655192187866798
C  3.735626846209877  2.8846181599852003  2.5109774368356104
C  4.2521930341318885  3.777740722325936  3.475460080708024
H  5.194609055444324  3.5264108522342523  4.018106921847147
H  1.9234942494642886  6.240436329528043  3.3105097650539057
C  3.596481844010312  4.982226015075048  3.746227417683355
H  4.0179645502477275  5.688962553197694  4.472600916732585
H  -2.733663267267366  15.250066828663618  4.862594931450323
C  1.636044595807632  1.0524526641332286  4.285808234555162
H  2.5651196254696913  1.3842814748497867  4.8043662407334295
C  1.7562057945136968  0.043141655330666114  3.343140584540452
H  2.746839659582348  -0.3770873990710263  3.1282152564093733
C  0.6075960494771071  -0.4244891683521803  2.6799909096159373
N  0.6498196331419489  -1.525948918877425  1.8321038230829636
H  -0.19776735867366646  -2.1188692947096093  1.8387935408284437
C  1.6482528788121273  -2.051992008567235  1.088807497115415
N  1.5212991630979433  -3.444913733704548  1.0285513266755981
H  1.0022502275866163  -3.8211888799670377  1.8485746185827736
C  2.0367278079862676  -4.365966250045356  0.14670515981013038
C  2.2136301057682375  -5.691183224895708  0.5828041399840391
H  1.9371030196952232  -5.914134402848586  1.5509819337550044
C  2.7072671706928504  -6.663622838865284  -0.28705844887294146
C  2.812261175956837  -8.076482113727067  0.1989096331228384
F  3.1371039671859036  -8.156745184411754  1.5278289840797992
F  1.6220637889483769  -8.748471895186361  0.0665906565323788
F  3.7628810423579644  -8.792908683890333  -0.4851497011989082
C  3.045789344477206  -6.354666319871347  -1.6096117713972524
H  3.4325176969435645  -7.111561847978612  -2.3072744797289917
C  2.853944143354192  -5.0302059035383335  -2.0380850162313076
C  3.2382455136237547  -4.644540877489446  -3.451789166047561
F  3.106358424853738  -5.692543902118959  -4.31386570101365
F  4.550206360926953  -4.262557018515718  -3.516127516456352
F  2.499560141491494  -3.6306844899230994  -3.934997391078749
C  2.3623424320671664  -4.0363557693515055  -1.1806336158232396
H  2.223980337313468  -3.0107546576094215  -1.5646559912720945
S  2.876379144783785  -1.193061288209428  0.315911645587136
C  -0.6438458007244668  0.11456904296813603  3.024342069801494
H  -1.5466104210978526  -0.26602987215299434  2.524631389099104
C  -0.7457268433659855  1.1091798250354699  3.9835799378304455
H  -1.7811213905484382  1.4990588553063964  4.240558739125101
C  0.39034942194610744  1.6042703968847825  4.637569720338601
C  0.28160291481179867  2.7162820784196855  5.668424665802664
H  1.2922361973318441  2.9572437324713423  6.021118219306774
H  -0.326546205097299  2.3959031014393877  6.536344638102007
C  -0.3488724974291569  3.973731412418969  5.084540696230782
H  -1.3969341144560767  3.745583288439734  4.834168781367841
H  0.21669042313197534  4.2712969873863464  4.175045695494154
O  -0.2703960688838813  5.010296669272212  6.051798135109401
C  -0.9245434399899671  6.184296139881801  5.7684931937724
C  -1.6073253657555637  6.448067575670905  4.571576514436033
H  -1.6250229900473103  5.741282844905855  3.796379029217075
C  -2.280813668765177  7.6740587627839645  4.397881970575121
H  -2.8183037818197056  7.8380114523826725  3.4615893417857295
C  -2.2910793056553396  8.653666294760997  5.405272458066369
C  -1.5704439634984275  8.391176215293294  6.589492452215287
H  -1.5063550701564214  9.130709673436217  7.352977612699891
N  -2.9530710139051912  9.853969659193911  5.190714944510048
C  -3.3230918479689393  10.716621647078057  6.3236204276324814
H  -2.4443332961424185  11.265734708820306  6.686101777278388
H  -3.7278956394862814  10.157241030633493  7.178484671160225
C  -4.388401150690115  11.704995011210004  5.900061514951792
C  -5.736378253933461  11.487598082847297  6.224615361663375
H  -5.974923755739042  10.60344865417871  6.799865782582368
C  -6.736689188055431  12.34646602324269  5.803820123468256
C  -8.218536201440967  12.127513225992598  6.139125808109589
C  -8.435537829457393  10.883201853400289  7.0240137810789465
H  -9.502465341598493  10.776022581631402  7.27023915612446
H  -8.101703889561037  9.952352526935542  6.516353024719013
H  -7.92966939793028  10.974528310013786  7.974867613782319
C  -9.023488538734854  11.933459279465465  4.839465286868473
H  -8.672729967832556  11.089999478725057  4.301827408459297
H  -10.108553597801674  11.787645905720595  5.049109039317775
H  -8.966559522268398  12.801917906688965  4.172311391694728
C  -8.737835865847996  13.365561370922935  6.913783486199495
H  -8.635152042963952  14.26883447854622  6.306124502740559
H  -9.791954147529047  13.268319219936727  7.193665524059463
H  -8.19731059209189  13.495417354197864  7.862918199162378
C  -6.354473499736656  13.436971898339499  5.005601801232865
H  -7.139683632542474  14.140838995764899  4.67750671087319
C  -5.03644620295958  13.695310064615995  4.640567525076205
C  -4.62009255499626  14.896194926299087  3.7729637629277515
C  -3.675743126545484  15.799992109072694  4.579666310114426
H  -3.372711385580038  16.667034675865807  3.970498112384588
H  -4.152180221460906  16.159658628139685  5.479009982739301
C  -3.8920849913387605  14.381235603608943  2.5052891939932698
H  -3.5626230177362044  15.248815682031784  1.8897467794242888
H  -2.998102484609533  13.795843115515353  2.7804716246364647
H  -4.533785638720734  13.726183723272444  1.897499525206249
C  -5.830438753275841  15.734220303481173  3.324829925513893
H  -6.359657730050318  16.18574537184815  4.161145025907474
H  -5.495582555412185  16.597757650667983  2.694895952284182
H  -6.60770777987889  15.149233279203017  2.729196148836252
C  -4.049925027541897  12.809479501746628  5.117149778405769
H  -2.976656154864536  12.973612033402905  4.8857106628110385
C  -0.8930461927864208  7.178279792179597  6.761887293146219
H  -0.3342936879029722  6.948068096363703  7.650042923356885
H  -3.6831747232560144  9.78413101078698  4.45144086820361

