154
000 frame 0 XYZ file generated by PYTHON code : coordinates in Angstrom
C  -0.07704503820623465  1.0020594596761967  -0.8308631830440041
C  -0.9615432837681211  0.04976250977430485  -1.390643472224518
H  -2.016180304524099  0.21428782257776113  -1.3715817695414643
C  -0.46509455547876444  -1.1526912070438091  -1.9093200046792707
O  -1.2294672928647867  -2.138110725425301  -2.4642815475642483
C  -2.636656677030336  -1.9101562504865792  -2.5450109468986115
C  -3.27779335526327  -2.9846149277422125  -3.4072069580627966
H  -4.078451235579368  -2.5102830875529905  -4.016196442433669
H  -2.5176274569703168  -3.3688977905675417  -4.131217822428711
O  -3.8325953907148924  -4.028674301007467  -2.6172095769403727
C  -4.512246421826307  -4.972013436220787  -3.4441942269632997
H  -3.843408959447699  -5.423935384684196  -4.143046570051417
C  -5.161303115693327  -6.057263773611558  -2.610445804042257
O  -4.224035158855537  -7.099778411892249  -2.367668333907617
C  -4.770296476499384  -8.253173565824167  -1.7231404264380872
H  -4.093933588221287  -9.085183710404875  -1.9363370455658733
H  -5.7523230067218964  -8.495523627090819  -2.179668189804522
C  -4.947038220539729  -8.10731673072498  -0.22871091740396132
H  -5.480383764168511  -8.958628268966727  0.14819804744254472
O  -3.625222182446809  -8.068627285330564  0.3723410388407222
C  -3.557736905967084  -7.75506879932532  1.7096057866533205
C  -2.237045912923012  -7.715434875777916  2.2466337039474076
O  -1.2078081221761583  -8.023258955748313  1.405003360492712
C  0.13034369210237506  -7.789701642883495  1.910536783659794
H  0.2802938302047351  -6.6957213564489875  2.1264213441651845
C  1.1714092909474525  -8.24696155885136  0.9213941777361427
H  0.9314647475772131  -9.291470016516747  0.5859080319116112
O  1.2915287861551659  -7.355755698442335  -0.17079536774082393
C  2.5012929083732756  -7.554429377003036  -0.8822073971249391
C  2.59569989293293  -6.621903207124439  -2.0687776874752126
H  1.7200972963587837  -6.772989458670523  -2.7283580356717674
H  3.485260199049929  -6.917202843565007  -2.626136712031566
O  2.6727097651058385  -5.2688281745478776  -1.6522457043324983
C  2.9065416224967615  -4.387675040172342  -2.7393909272411365
H  2.175569810017744  -4.609720652864506  -3.550019376460705
H  3.934170168348638  -4.534534589406287  -3.1277212946564186
C  2.736739395082899  -2.955774935368244  -2.307802878481355
H  3.298405597967892  -2.279378499884296  -2.9673006957887105
O  1.331579406916409  -2.6158069470824223  -2.3782921613088375
H  3.135119322564967  -2.8122011701590037  -1.2671837124856447
H  2.5495247879344816  -8.616708146515997  -1.2792159717227096
H  3.370692469736639  -7.365991257206452  -0.20950996997074267
H  2.1176004955179697  -8.305002626441686  1.450832666400916
H  0.2640686016866547  -8.39593071407062  2.8268040159099774
C  -2.0796858432226326  -7.323357346385627  3.5836169568985796
H  -1.0668606423925016  -7.203242599232226  4.052570306916298
C  -3.1821393347393303  -7.036728248550486  4.387533767280416
C  -4.472098945578338  -7.1371217361047155  3.8750719274656427
H  -5.3174912139994905  -6.910803670190176  4.473375464315611
H  -3.0363171946401497  -6.709735151135831  5.412255723908183
C  -4.657186892505224  -7.4994840856092075  2.5142859549824323
H  -5.673543046613498  -7.575048835726581  2.1302654453696683
H  -5.4972288790270225  -7.172227673941169  6.682184748629805e-05
H  -6.038054132876893  -6.462639296493679  -3.187623662887932
H  -5.576202616666822  -5.614954889707084  -1.6624589138731705
H  -5.307854006449286  -4.4419385985170265  -4.030537568891521
H  -3.073060760626011  -1.923982440249055  -1.5066039498503478
H  -2.8380230453764117  -0.9343678657029404  -2.9831959417340683
C  0.9304562711953448  -1.408714954946341  -1.8842467068849853
C  1.798698240255872  -0.4440336083488621  -1.327217900730174
H  2.899284657775831  -0.629093862520774  -1.3116456522945357
H  -0.45517333393052983  1.9169695569147933  -0.39950928765771915
C  1.2888162373472816  0.7485256113578238  -0.8057969703152292
H  1.9688684948658701  1.5102857069590918  -0.40331324407373775
H  -4.285835076798669  10.819948182796374  2.9671698519654788
C  0.08511711096623409  -3.214911519562849  0.7497912702670413
H  1.1272102429748645  -2.8199999729766487  0.7330595420824682
C  -0.21179393035470007  -4.270561146836972  -0.09827560358578469
H  0.5695020007254326  -4.665029312585585  -0.7601761578573459
C  -1.50748846172821  -4.8172927661083085  -0.0950132637002643
N  -1.8201603891698548  -5.962443532956239  -0.8194267585576793
H  -2.518202508622595  -6.585214636373079  -0.3779560513590768
C  -1.2847355680019308  -6.491968524334596  -1.9414798993891604
N  -1.3408617221897137  -7.889834013741881  -1.8885562495770198
H  -1.3675540000269735  -8.238379464986014  -0.9081295194531095
C  -1.2695740297795435  -8.8392710930479  -2.881100649185499
C  -0.8222408913729792  -10.130293426110955  -2.5481874882612976
H  -0.5746516030583517  -10.308479571304868  -1.5630519953433892
C  -0.7609352180997632  -11.131136880726045  -3.517997403634564
C  -0.3464080383168411  -12.509470429805173  -3.103601586658634
F  0.5923426356025059  -12.502557771734718  -2.1052574434637803
F  -1.405744474002124  -13.231729973663867  -2.6118741567464387
F  0.1879352980324107  -13.22738737420876  -4.1447330834170755
C  -1.1335153900321033  -10.88480189009381  -4.844534915944605
H  -1.0937204194015733  -11.664873336335834  -5.618542546874233
C  -1.5900578514087198  -9.594661450205308  -5.163432898832642
C  -1.9721311992749035  -9.275224003000197  -6.5941544485723025
F  -2.4463677238059054  -10.374327402664118  -7.24680437893616
F  -0.8858773454995582  -8.848852920871337  -7.307983995585305
F  -2.9123072077311036  -8.318438497227383  -6.681799251130567
C  -1.6569660840639555  -8.573079954794686  -4.2060783289564565
H  -2.0272331269781216  -7.576618249545906  -4.503469118021792
S  -0.647421843122571  -5.6327931828277435  -3.2449648641971445
C  -2.459263608171787  -4.306691507033399  0.8042523288764558
H  -3.4663058516500898  -4.74821927392804  0.825918184699584
C  -2.13745014602314  -3.2640935996555793  1.6581805115864197
H  -2.935224896851206  -2.8992041387273386  2.3796351249473062
C  -0.8587961321877688  -2.690948168268238  1.6522798381393131
C  -0.5149071985536882  -1.5274375780793261  2.5682717644759876
H  0.5222588398535797  -1.2294935277727297  2.3699012908530652
H  -0.5989566417185549  -1.820835454876133  3.632521028627974
C  -1.425001118802199  -0.32925694070857325  2.3322828251267462
H  -2.4453224282808295  -0.6100452644577858  2.6376893705418376
H  -1.396989653480646  -0.06255003575710116  1.2535471626282972
O  -0.944956114269998  0.762371895841297  3.103072233107247
C  -1.7232624068951017  1.8933497221577635  3.1427421353406637
C  -2.9195777078793324  2.0636275622259594  2.4298527865797683
H  -3.272462820245185  1.3141136348012168  1.7860438298970633
C  -3.6640958744788494  3.2519344980505176  2.57278635720352
H  -4.60030833254908  3.3427223031974824  2.018093829244052
C  -3.238112992361251  4.285690686741369  3.423937707305773
C  -2.0151847030300427  4.117386255615917  4.107101926468056
H  -1.6296733719927643  4.900642675788165  4.71687000216869
N  -3.9911211195535468  5.446494126625553  3.5264572148123885
C  -3.8093857608138086  6.357230086600777  4.667549224302562
H  -2.900628223425201  6.958259257665852  4.533168609653211
H  -3.708643878604419  5.832217816294524  5.6276423696482425
C  -5.00279299968493  7.279781710437029  4.793428664514753
C  -6.002702366055721  7.030943376273123  5.746266340742791
H  -5.874929608686007  6.172342290910058  6.391258987291305
C  -7.130446127893861  7.826863122573999  5.846518530415542
C  -8.24139354227269  7.572090183189503  6.87468553654754
C  -7.921428808503701  6.372401671733857  7.7894517732745125
H  -8.721989457475345  6.239587477546979  8.532359361684671
H  -7.824018027147847  5.427510055781155  7.21209920739083
H  -7.020931972216991  6.535952087767229  8.364537081826999
C  -9.566761751498536  7.275246460858033  6.146670712223029
H  -9.474587667653829  6.416486060931564  5.532223796198293
H  -10.398702124753658  7.101149123594687  6.867880499883668
H  -9.896562566415191  8.106246287155816  5.511669664087176
C  -8.387664453928593  8.831614067714472  7.766164237110173
H  -8.65060942692974  9.702406427565741  7.1593064928126005
H  -9.161185852748083  8.7110882272111  8.53173168035641
H  -7.4601936085005836  9.034800471531693  8.321501942922968
C  -7.255013468810578  8.884137712633155  4.93049571150647
H  -8.140954172659386  9.538649610125756  5.010204413174581
C  -6.303453526624941  9.170426592844684  3.955940972423688
C  -6.4389921529498  10.335189964187393  2.959363494834277
C  -5.276773922993385  11.317570025208806  3.1681514061386205
H  -5.364072703877111  12.159594822506218  2.4624247555283247
H  -5.271805787589839  11.709342582142249  4.173964973905559
C  -6.396435937174505  9.777096815394291  1.5140614726740864
H  -6.463910243929159  10.620283520416422  0.7897574984605118
H  -5.448982214791599  9.241860098883862  1.3311200644831644
H  -7.212949008604573  9.065380181768376  1.321586004442163
C  -7.761513608025243  11.100947942278399  3.139918496375048
H  -7.838864709047341  11.57885062352948  4.114082955956718
H  -7.831109365896559  11.939491145073386  2.4005647505971868
H  -8.694162149401599  10.454769636187745  3.022628900860778
C  -5.158730093114951  8.35023574850484  3.91183088872592
H  -4.34883340751437  8.540942619758983  3.176910571179217
C  -1.2686921334640529  2.9422165976606136  3.9607100798672854
H  -0.33360311892080396  2.783400779574154  4.465099097278378
H  -4.984166603414337  5.30795019506044  3.2451721829887203
154
000 frame 1 XYZ file generated by PYTHON code : coordinates in Angstrom
C  -0.07704503820623465  1.0020594596761967  -0.8308631830440041
C  -0.9615432837681211  0.04976250977430485  -1.390643472224518
H  -2.016180304524099  0.21428782257776113  -1.3715817695414643
C  -0.46509455547876444  -1.1526912070438091  -1.9093200046792707
O  -1.2294672928647867  -2.138110725425301  -2.4642815475642483
C  -2.636656677030336  -1.9101562504865792  -2.5450109468986115
C  -3.27779335526327  -2.9846149277422125  -3.4072069580627966
H  -4.078451235579368  -2.5102830875529905  -4.016196442433669
H  -2.5176274569703168  -3.3688977905675417  -4.131217822428711
O  -3.8325953907148924  -4.028674301007467  -2.6172095769403727
C  -4.512246421826307  -4.972013436220787  -3.4441942269632997
H  -3.843408959447699  -5.423935384684196  -4.143046570051417
C  -5.161303115693327  -6.057263773611558  -2.610445804042257
O  -4.224035158855537  -7.099778411892249  -2.367668333907617
C  -4.770296476499384  -8.253173565824167  -1.7231404264380872
H  -4.093933588221287  -9.085183710404875  -1.9363370455658733
H  -5.7523230067218964  -8.495523627090819  -2.179668189804522
C  -4.947038220539729  -8.10731673072498  -0.22871091740396132
H  -5.480383764168511  -8.958628268966727  0.14819804744254472
O  -3.625222182446809  -8.068627285330564  0.3723410388407222
C  -3.557736905967084  -7.75506879932532  1.7096057866533205
C  -2.237045912923012  -7.715434875777916  2.2466337039474076
O  -1.2078081221761583  -8.023258955748313  1.405003360492712
C  0.13034369210237506  -7.789701642883495  1.910536783659794
H  0.2802938302047351  -6.6957213564489875  2.1264213441651845
C  1.1714092909474525  -8.24696155885136  0.9213941777361427
H  0.9314647475772131  -9.291470016516747  0.5859080319116112
O  1.2915287861551659  -7.355755698442335  -0.17079536774082393
C  2.5012929083732756  -7.554429377003036  -0.8822073971249391
C  2.59569989293293  -6.621903207124439  -2.0687776874752126
H  1.7200972963587837  -6.772989458670523  -2.7283580356717674
H  3.485260199049929  -6.917202843565007  -2.626136712031566
O  2.6727097651058385  -5.2688281745478776  -1.6522457043324983
C  2.9065416224967615  -4.387675040172342  -2.7393909272411365
H  2.175569810017744  -4.609720652864506  -3.550019376460705
H  3.934170168348638  -4.534534589406287  -3.1277212946564186
C  2.736739395082899  -2.955774935368244  -2.307802878481355
H  3.298405597967892  -2.279378499884296  -2.9673006957887105
O  1.331579406916409  -2.6158069470824223  -2.3782921613088375
H  3.135119322564967  -2.8122011701590037  -1.2671837124856447
H  2.5495247879344816  -8.616708146515997  -1.2792159717227096
H  3.370692469736639  -7.365991257206452  -0.20950996997074267
H  2.1176004955179697  -8.305002626441686  1.450832666400916
H  0.2640686016866547  -8.39593071407062  2.8268040159099774
C  -2.0796858432226326  -7.323357346385627  3.5836169568985796
H  -1.0668606423925016  -7.203242599232226  4.052570306916298
C  -3.1821393347393303  -7.036728248550486  4.387533767280416
C  -4.472098945578338  -7.1371217361047155  3.8750719274656427
H  -5.3174912139994905  -6.910803670190176  4.473375464315611
H  -3.0363171946401497  -6.709735151135831  5.412255723908183
C  -4.657186892505224  -7.4994840856092075  2.5142859549824323
H  -5.673543046613498  -7.575048835726581  2.1302654453696683
H  -5.4972288790270225  -7.172227673941169  6.682184748629805e-05
H  -6.038054132876893  -6.462639296493679  -3.187623662887932
H  -5.576202616666822  -5.614954889707084  -1.6624589138731705
H  -5.307854006449286  -4.4419385985170265  -4.030537568891521
H  -3.073060760626011  -1.923982440249055  -1.5066039498503478
H  -2.8380230453764117  -0.9343678657029404  -2.9831959417340683
C  0.9304562711953448  -1.408714954946341  -1.8842467068849853
C  1.798698240255872  -0.4440336083488621  -1.327217900730174
H  2.899284657775831  -0.629093862520774  -1.3116456522945357
H  -0.45517333393052983  1.9169695569147933  -0.39950928765771915
C  1.2888162373472816  0.7485256113578238  -0.8057969703152292
H  1.9688684948658701  1.5102857069590918  -0.40331324407373775
H  -5.862012676217343  10.83261657007327  0.3515364342254612
C  -0.5423335850577833  -3.036985093480201  0.9298458052745631
H  0.43284848672860776  -2.582305032504585  1.2204987687074456
C  -0.5065923723659393  -4.166968626602287  0.1275805716161279
H  0.46239650882679695  -4.560380326096807  -0.2047274064435779
C  -1.7114430635473212  -4.789032066714707  -0.24541046505775077
N  -1.7285588023313596  -6.000156921889415  -0.9286326552842751
H  -2.5124400625702457  -6.630367454210917  -0.6870381853705734
C  -0.8345727556729566  -6.575994455894534  -1.7624670448831499
N  -0.8588547639348627  -7.967246475006043  -1.6081712647654274
H  -1.1972047943967292  -8.245189236920666  -0.6638725512185406
C  -0.43156630035183896  -8.979740259726574  -2.43517670164938
C  -0.07734480443083602  -10.21413835385784  -1.8620578213694061
H  -0.16423605409310027  -10.305627228967143  -0.8385235552614341
C  0.3346995794711274  -11.276773443593852  -2.66642301823849
C  0.6338842825871212  -12.594198151566726  -2.0197077016833767
F  1.1882641117592292  -12.45885572586224  -0.773779504037692
F  -0.5040520354938505  -13.341579913975544  -1.8403481878447459
F  1.506273925551337  -13.351827455611094  -2.761203812399487
C  0.41453803309840853  -11.149567796101124  -4.058056313421165
H  0.7341612908098409  -11.979587637151205  -4.7046558419239535
C  0.047019890620185745  -9.915591758822382  -4.62092650408397
C  0.149994839454068  -9.723687606670737  -6.1201107606100535
F  -0.04476209597014824  -10.893519797520153  -6.79274950266451
F  1.3966416834494506  -9.285275909480017  -6.473606427951275
F  -0.7391599348836412  -8.834032819833752  -6.594419931804904
C  -0.3668677477787532  -8.833545240041406  -3.831936269797267
H  -0.6504513462025637  -7.88520743955318  -4.320516512323269
S  0.16971047371084413  -5.776213205463842  -2.8557141585273866
C  -2.923637385359728  -4.273151660951719  0.2442021514713878
H  -3.865861094755964  -4.771776730814642  -0.026237822558196622
C  -2.9374058451633456  -3.1542409135405958  1.061280367407638
H  -3.9406798869513526  -2.7869763639375136  1.4468235927069468
C  -1.7486229144967116  -2.5070961494533153  1.4238895077153324
C  -1.7661220334489216  -1.2620048104205348  2.295955468278615
H  -0.7322293017695556  -0.9172528229272396  2.422631352502525
H  -2.1881407454299118  -1.4824538623146033  3.295493132156349
C  -2.5857551972145307  -0.14090365426559526  1.6707097266199447
H  -3.6397777148150965  -0.45984675165779443  1.6487404678865256
H  -2.2109006962772595  0.04855547896480328  0.6415463844594902
O  -2.4243987583056286  1.0303520745975527  2.457053895445764
C  -3.2088286688369996  2.1123486194717156  2.1401967947731095
C  -4.106477533902037  2.1584874835259624  1.0629439061553776
H  -4.201275950928517  1.3446409588913077  0.40761490702031344
C  -4.895137354908133  3.307036629849848  0.8492590331624184
H  -5.597276604473359  3.3010940937528277  0.012966528551688672
C  -4.80946329120666  4.42321412592688  1.698599745924279
C  -3.8769395974384837  4.378499098382545  2.7564246178191025
H  -3.7412159933063998  5.225448999128717  3.3874410052055794
N  -5.591836544884485  5.540957286184782  1.4465314323458989
C  -5.82844326297144  6.540856732791556  2.499516266596687
H  -4.94684130623275  7.1842385730206635  2.6177206377647497
H  -6.034061332874529  6.093431029818295  3.4819098273406435
C  -7.025975852075076  7.396578713244529  2.1462124878093416
C  -8.276217769415432  7.15733972383575  2.7372275035381572
H  -8.340974434639456  6.356713702152571  3.4613419717867715
C  -9.399160541242676  7.889094194766471  2.3924382027695357
C  -10.778861481514255  7.6426936067589635  3.0184995945669644
C  -10.74045867760685  6.5334998680824805  4.089313162823871
H  -11.737025344583522  6.406638623670742  4.537877261603654
H  -10.426187257293542  5.557030700604343  3.6610767200806706
H  -10.087153287497998  6.7919771056778435  4.9107436149984665
C  -11.777767967986243  7.21491754443803  1.9258348968029324
H  -11.458994931527801  6.321210070643677  1.4534143200516936
H  -12.795376117195126  7.043502975728296  2.347342815600787
H  -11.905919313755383  7.976625179290186  1.1474170581418703
C  -11.253630288719442  8.952106259764587  3.698619402171547
H  -11.329371826936839  9.759482956818545  2.965065175778868
H  -12.23260941446706  8.840739778152738  4.17627275026315
H  -10.569657920901566  9.250244400661888  4.5068163461873265
C  -9.248185213562458  8.868172931781405  1.3969204163252025
H  -10.131635618726307  9.472216806097073  1.124383058638854
C  -8.037581249331172  9.140221656537069  0.7663554957023297
C  -7.873824485877546  10.219847521884404  -0.3179889203308501
C  -6.879455777776088  11.282885546908396  0.1725161458448421
H  -6.755871461785185  12.065066795659625  -0.5940321910082161
H  -7.220810430580758  11.745724945644106  1.0859864758644786
C  -7.336614054635568  9.56260446839455  -1.6147593127656055
H  -7.188221480535022  10.34579659685176  -2.3923984209219302
H  -6.364909061847616  9.073569958123638  -1.4296941557424037
H  -8.019328025125946  8.791016337892891  -2.000549877234562
C  -9.206038912352337  10.915638808444953  -0.6483335830168763
H  -9.61738340702664  11.456992008307896  0.20084424264017864
H  -9.054509380234391  11.692995484796715  -1.4404179424701908
H  -10.025331968105046  10.207729060019496  -1.007163948355608
C  -6.916417928062097  8.389371992947066  1.171655445834707
H  -5.915604827119291  8.575007725389469  0.728572906057843
C  -3.0857065636827095  3.24289873959247  2.966347378749614
H  -2.365720534024559  3.177420369938811  3.760925826911563
H  -6.430539499727611  5.3229829924205925  0.8690198879476205
