38
000 frame 0 XYZ file generated by PYTHON code : coordinates in Angstrom
SI  -0.06950947300275057  -0.2880319311012647  -1.410131389609089
SI  -1.395912146921097  -0.10546977260090262  -0.6011189112453306
SI  -2.7069458678643197  -0.41194148437862843  0.19539841918265222
SI  -3.8742775207174405  -1.1774474799716677  0.9014519357099995
SI  -4.783640550021323  -2.3270546989374776  1.4479282007748995
SI  -5.346020166562919  -3.7482315768992045  1.7813343100287748
SI  -5.506366735145947  -5.301863419120401  1.8690341505208985
SI  -5.248984416437261  -6.8358699160948975  1.7024430508231818
SI  -4.599067585080132  -8.200091823847096  1.297868108482481
SI  -3.6202346287646243  -9.26098959695327  0.6949119376944783
C  -2.408300537185129  -9.914715169672355  -0.04740391050142756
C  -1.0818978632667826  -10.097277328172718  -0.8564163888651859
C  0.22913585767643974  -9.79080561639499  -1.6529337192931686
C  1.3964675105295608  -9.025299620801952  -2.358987235820516
C  2.3058305398334435  -7.875692401836142  -2.9054635008854164
C  2.8682101563750404  -6.454515523874415  -3.2388696101392918
C  3.028556724958067  -4.9008836816532195  -3.3265694506314154
C  2.771174406249383  -3.3668771846787227  -3.159978350933699
C  2.1212575748922533  -2.0026552769265233  -2.7554034085929984
C  1.142424618576746  -0.9417575038203516  -2.1524472378049957
C  -1.2389050050939394  -5.10137355038681  -0.7287676500552585
C  -0.8356861539700396  -5.588182219196119  0.19342098469927527
C  -0.08164864321878329  -4.6309884022197645  0.9112004975876598
C  0.20463065469599773  -5.599131232957628  1.9015255062975767
C  0.958668165447254  -4.641937415981274  2.619305019185961
C  1.2449474633620348  -5.6100802467191375  3.609630027895878
C  1.9989849741132915  -4.652886429742783  4.327409540784263
C  2.2852642720280723  -5.621029260480647  5.31773454949418
C  3.0393017827793285  -4.663835443504292  6.035514062382564
S  3.3255810806941097  -5.631978274242156  7.025839071092481
S  4.0796185914453655  -4.674784457265801  7.743618583980865
S  4.365897889360147  -5.642927288003665  8.733943592690782
S  5.1199354001114035  -4.68573347102731  9.451723105579166
S  5.406214698026184  -5.653876301765174  10.442048114289083
S  6.1602522087774405  -4.69668248478882  11.159827627177467
S  6.446531506692221  -5.6648253155266834  12.150152635887384
S  7.200569017443478  -4.707631498550329  12.867932148775768
S  7.486848315358258  -5.675774329288193  13.858257157485685
38
000 frame 1 XYZ file generated by PYTHON code : coordinates in Angstrom
SI  0.9708073356632867  -0.29898094486277405  0.29797313198921227
SI  -0.35559533825505996  -0.11641878636241199  1.1069856103529707
SI  -1.6666290591982822  -0.4228904981401378  1.9035029407809536
SI  -2.833960712051403  -1.188396493733177  2.609556457308301
SI  -3.7433237413552853  -2.338003712698987  3.156032722373201
SI  -4.305703357896882  -3.759180590660714  3.489438831627077
SI  -4.46604992647991  -5.31281243288191  3.5771386721191996
SI  -4.208667607771224  -6.846818929856407  3.4105475724214833
SI  -3.558750776414094  -8.211040837608605  3.0059726300807825
SI  -2.579917820098587  -9.271938610714777  2.40301645929278
C  -1.3679837285190914  -9.925664183433863  1.6607006110968738
C  -0.04158105460074535  -10.108226341934227  0.8516881327331152
C  1.269452666342477  -9.8017546301565  0.05517080230513283
C  2.436784319195598  -9.036248634563462  -0.6508827142222147
C  3.346147348499481  -7.886641415597651  -1.197358979287115
C  3.9085269650410774  -6.465464537635924  -1.5307650885409905
C  4.068873533624105  -4.911832695414729  -1.618464929033114
C  3.81149121491542  -3.3778261984402316  -1.4518738293353979
C  3.161574383558291  -2.0136042906880327  -1.0472988869946969
C  2.182741427242783  -0.952706517581861  -0.4443427162066943
C  -0.7187466007609208  -5.106848057267564  0.1252846107438922
C  0.26089912726286535  -5.629271445511181  -0.006503290752435276
C  1.255478788955875  -4.894405326672803  0.6796330542476221
C  2.2301465390899198  -5.835925217277085  0.2752037372524996
C  3.2247262007829294  -5.101059098438707  0.9613400822525568
C  4.199393950916974  -6.042578989042988  0.5569107652574345
C  5.193973612609984  -5.30771287020461  1.2430471102574918
C  6.168641362744029  -6.2492327608088925  0.8386177932623686
C  7.163221024437038  -5.514366641970514  1.5247541382624274
S  8.137888774571085  -6.455886532574795  1.120324821267304
S  9.13246843626409  -5.721020413736418  1.8064611662673618
S  10.107136186398137  -6.662540304340698  1.4020318492722392
S  11.10171584809115  -5.927674185502322  2.0881681942722974
S  12.076383598225192  -6.869194076106602  1.6837388772771735
S  13.070963259918205  -6.134327957268225  2.3698752222772335
S  14.045631010052244  -7.075847847872506  1.9654459052821074
S  15.040210671745257  -6.340981729034128  2.6515822502821664
S  16.0148784218793  -7.28250161963841  2.2471529332870426
