154
000 frame 0 XYZ file generated by PYTHON code : coordinates in Angstrom
C  3.564728986551403  -2.3715112900862563  2.114679044176146
C  2.3315349617976757  -2.0470371355221366  1.5010752471856756
H  1.6308307510358766  -1.4126249506108572  1.9972868565501471
C  1.987573610617512  -2.6152890843144183  0.26812677388389416
O  0.8243429263036979  -2.3753899645359966  -0.40466027292054646
C  -0.0954994548572039  -1.4546752063095658  0.18256776564196975
C  -1.1936862097596945  -1.1261623101511713  -0.8149114468668819
H  -1.44492839136125  -0.04753628238025964  -0.7131510105318354
H  -0.7938625468167261  -1.2598353310414687  -1.8502808521254928
O  -2.357531869084567  -1.9117451253685482  -0.5906703771887785
C  -3.4043488387380543  -1.5155262454968965  -1.4754882628398933
H  -3.1197865599618444  -1.6536760285524137  -2.4952483046944343
C  -4.670450859889268  -2.3020369925374107  -1.2061077954517039
O  -4.645386777221975  -3.517762675193018  -1.944776699793144
C  -5.859437925953826  -4.271089918646406  -1.892662360994048
H  -5.856894981453505  -4.93621528050453  -2.7602810688254267
H  -6.72184475187617  -3.5814343131043147  -2.002920554921288
C  -6.037384051201624  -5.080266548159034  -0.627988578288235
H  -7.023698114811409  -5.502486521640282  -0.6151810120509016
O  -5.059454593040741  -6.154152364749221  -0.647512759135058
C  -4.929396963075099  -6.899421896625128  0.5008811324260756
C  -3.94587061634649  -7.93017149717679  0.43435506828582593
O  -3.2811344553990964  -8.08806505709719  -0.7470099003836095
C  -2.1572387284359307  -9.003228394345049  -0.7371205394391169
H  -1.3620964854905082  -8.636796186304789  -0.030466235777623085
C  -1.5656918371348425  -9.150804087188387  -2.1153806734402636
H  -2.386861013589236  -9.364480835058528  -2.8510067245890327
O  -0.8036188857583817  -8.01870671245193  -2.4884154344220235
C  0.05678857072551691  -8.299076842594298  -3.579377916115266
C  0.8343346284919941  -7.069205345498661  -3.990844827139191
H  0.1300841901386376  -6.253587873685076  -4.24254436629698
H  1.3745913622452157  -7.333025560570729  -4.90061955283173
O  1.721421925841344  -6.6567105011844365  -2.964606264488886
C  2.5633189964363736  -5.593548794943885  -3.3816067780988606
H  1.9377347770360593  -4.7934774557647595  -3.8390701800232545
H  3.2884787595812677  -5.961735939623049  -4.134580996858289
C  3.311274820374604  -5.017884068142267  -2.2091686525850784
H  4.233005086351161  -4.519085710332911  -2.5401247636652005
O  2.463770223225425  -4.044804004354011  -1.5535218637837107
H  3.6119465516884715  -5.834948492184214  -1.4990908552499502
H  -0.550361777127437  -8.634532041510079  -4.477830236102554
H  0.7790273098512288  -9.099958820623607  -3.295044288548777
H  -0.929626587217022  -10.030689310184094  -2.1021645236965796
H  -2.527164392852035  -10.00120853212188  -0.4335874662817119
C  -3.696966546009475  -8.680682984624436  1.5922801393682153
H  -2.8904777479569166  -9.46046104250776  1.6332884735530242
C  -4.427666043039875  -8.470636975500959  2.7609550718402316
C  -5.428906212726574  -7.504925766070356  2.801101924660836
H  -5.983390744907057  -7.3284291469572  3.687257059886582
H  -4.200704409917097  -9.044988968904379  3.6536206729802845
C  -5.67775429401874  -6.708141849610629  1.6519663772812385
H  -6.466169834061054  -5.958325852556266  1.7003246448109
H  -5.879121488734559  -4.436829986888994  0.26104624202133375
H  -5.54593593309884  -1.6764901171896334  -1.5353082431365643
H  -4.790268651120778  -2.467103535562151  -0.09937629147271476
H  -3.6181147197501584  -0.42450280443304145  -1.3280390306813679
H  -0.5320571745510445  -1.912707288907522  1.1145295394866992
H  0.4157960155933882  -0.5362493788695009  0.46503620151797564
C  2.885651785357158  -3.5083765735755503  -0.37186484181484275
C  4.114629579309397  -3.8157829215381254  0.25251503246209284
H  4.8340630465609244  -4.508298234934381  -0.24610133503406567
H  3.8227826015911974  -1.9630363708428233  3.0804244812533224
C  4.44175959498523  -3.247532542988078  1.4870734135012138
H  5.411400080643207  -3.4627973538240955  1.9541933722746698
H  6.294578628129866  2.6373042285519874  11.91210705045265
C  0.8437123220688059  -5.76008192536917  0.9225101532689326
H  1.8928620166844676  -6.088904199940127  0.7398793613182064
C  0.01880036170826349  -5.6130522455401834  -0.18187757549859318
H  0.42254150654182654  -5.8041634570172  -1.1841801257660847
C  -1.3197414468741322  -5.222617331812035  0.0014713536579958886
N  -2.225282416830389  -5.196492759223267  -1.053621999079924
H  -3.1967590916149184  -5.451121749798858  -0.8058314007845375
C  -2.0534887545401506  -5.02782524591871  -2.383327949288206
N  -2.9962258689193275  -5.783644899880104  -3.0904081202921163
H  -3.3293524451437673  -6.600383496339754  -2.5377800973990645
C  -3.45912039885683  -5.679721810058118  -4.3813712233280855
C  -3.9750657193086196  -6.828617602606218  -5.007083344091265
H  -3.990356822871087  -7.702212481129999  -4.459232207556273
C  -4.48056742694338  -6.7619440602680925  -6.305543948232984
C  -5.084885513235016  -7.993855354379864  -6.906005655957694
F  -4.45574852948804  -9.142759065249042  -6.503266832760964
F  -6.400199033868488  -8.143565066635155  -6.541059437332759
F  -5.04194401406955  -7.978927936039094  -8.278162911353812
C  -4.485766906072493  -5.561410800357603  -7.025190765052255
H  -4.884197611786661  -5.493315249409978  -8.04783385154536
C  -3.978690349276027  -4.417312463138327  -6.3860494211500605
C  -3.9348002684493784  -3.1040888067256893  -7.140039983265597
F  -4.940629337379853  -3.014778010202543  -8.056125111228512
F  -2.768130645734516  -2.9817436314011965  -7.843748734252461
F  -4.031152264460748  -2.034716210285602  -6.331207747757725
C  -3.463044095006376  -4.461703082101504  -5.083447544431387
H  -3.0801869297789963  -3.5351542153367372  -4.6214924783831925
S  -0.8981837237410378  -4.048129468817515  -3.124199446238816
C  -1.8008229285902912  -5.0346758911326255  1.3085699742578605
H  -2.8535419274076625  -4.752694486521562  1.4562840743967866
C  -0.9658122670956008  -5.205752654674605  2.4009332738433273
H  -1.4065027435004487  -5.060899199472984  3.437704710283015
C  0.37688834793694403  -5.571243432821934  2.2364396872051153
C  1.300487918739048  -5.729815220579451  3.433467891640275
H  2.300385693669766  -5.988860146168004  3.0634205171605613
H  0.951271746495808  -6.541587369871968  4.100436528031846
C  1.3952054789007668  -4.449329411548049  4.252603557818272
H  0.4093593010290959  -4.260262769861532  4.705959856869759
H  1.6859172063813053  -3.6127035254941875  3.5809402022791343
O  2.389883305057148  -4.623292099856427  5.250885101195596
C  2.516887926434725  -3.6296745268879604  6.190586742536903
C  1.778698213341252  -2.4365959052737596  6.19451305049083
H  1.0884623721150923  -2.229593718938697  5.431942672769981
C  1.9587451930153104  -1.4978762523771283  7.230466320726794
H  1.3535664968224888  -0.5891077851737112  7.212616629567622
C  2.8677921953560315  -1.727049344400719  8.277216116868376
C  3.6302578920883617  -2.9136477193610357  8.242234827946225
H  4.370092758390146  -3.0974577030800257  8.985729934004283
N  3.027445790745534  -0.772072816495526  9.270959884503347
C  3.6449520758284217  -1.1283136311788975  10.55794751978483
H  4.735147689979748  -1.1985728073567756  10.449912123393975
H  3.2978732023405053  -2.093975914723487  10.951137382651089
C  3.3140431186378176  -0.08339430651942514  11.601887574052913
C  2.305064338251054  -0.3130295055423842  12.549974274119988
H  1.793784994081455  -1.2653101165207978  12.514025900106322
C  1.9454885826452886  0.6459232349790547  13.480812420028096
C  0.8411440008273767  0.42245352284171656  14.523273514277054
C  0.23337964127372524  -0.991927690680833  14.430669576342565
H  -0.5300909349429692  -1.1270019560590385  15.211256707840835
H  -0.24461930687135292  -1.1719804650532195  13.443378831137515
H  0.972317362052272  -1.7585624362808585  14.616703483223436
C  -0.29319767693672594  1.442918525847376  14.307304058847933
H  -0.7166484021336972  1.3362538834903592  13.341476622797474
H  -1.1050521055805325  1.3165353473804018  15.06062862648368
H  0.04541915166327892  2.480813254373194  14.410593922084662
C  1.454646019263289  0.5911439282835698  15.93666966869707
H  1.8671589339919992  1.5965264096675948  16.05805696590719
H  0.7175948799053085  0.4334725475687371  16.730930769654343
H  2.24133989644824  -0.155523483502372  16.11966521806681
C  2.6111944307034403  1.881151442154029  13.42172446837622
H  2.34735772846264  2.6495763129253023  14.169750968139406
C  3.6092649122395937  2.1707661255271864  12.49589336334968
C  4.342792580945907  3.522423451498125  12.439584112977222
C  5.8391228978613166  3.2974540069246006  12.703778211946897
H  6.3762046801755  4.25926860673708  12.6701214669627
H  6.00187103680177  2.8449085184255063  13.670156489822675
C  4.1499460807272595  4.149000550783817  11.035166690878153
H  4.704588376440989  5.113136123500008  10.980877005961876
H  4.546503742110608  3.4798346226124677  10.252495981472396
H  3.0890896421265595  4.325541929816851  10.803438991982176
C  3.8080195843958986  4.51561435234622  13.486311424821027
H  3.9660311169199547  4.173706129519904  14.506851322444584
H  4.359445742019691  5.488259927982264  13.418991214282133
H  2.6936892848592002  4.739503544031037  13.389988179492013
C  3.9611186619239023  1.1529260214808472  11.587460140004312
H  4.768049979371365  1.3089063260457658  10.841174927271515
C  3.4604448855864858  -3.8440865403532953  7.210172524904143
H  4.0258027527048315  -4.755772881978438  7.153421254782483
H  2.207093137361044  -0.13587700352798038  9.353005205914512
154
000 frame 1 XYZ file generated by PYTHON code : coordinates in Angstrom
C  3.564728986551403  -2.3715112900862563  2.114679044176146
C  2.3315349617976757  -2.0470371355221366  1.5010752471856756
H  1.6308307510358766  -1.4126249506108572  1.9972868565501471
C  1.987573610617512  -2.6152890843144183  0.26812677388389416
O  0.8243429263036979  -2.3753899645359966  -0.40466027292054646
C  -0.0954994548572039  -1.4546752063095658  0.18256776564196975
C  -1.1936862097596945  -1.1261623101511713  -0.8149114468668819
H  -1.44492839136125  -0.04753628238025964  -0.7131510105318354
H  -0.7938625468167261  -1.2598353310414687  -1.8502808521254928
O  -2.357531869084567  -1.9117451253685482  -0.5906703771887785
C  -3.4043488387380543  -1.5155262454968965  -1.4754882628398933
H  -3.1197865599618444  -1.6536760285524137  -2.4952483046944343
C  -4.670450859889268  -2.3020369925374107  -1.2061077954517039
O  -4.645386777221975  -3.517762675193018  -1.944776699793144
C  -5.859437925953826  -4.271089918646406  -1.892662360994048
H  -5.856894981453505  -4.93621528050453  -2.7602810688254267
H  -6.72184475187617  -3.5814343131043147  -2.002920554921288
C  -6.037384051201624  -5.080266548159034  -0.627988578288235
H  -7.023698114811409  -5.502486521640282  -0.6151810120509016
O  -5.059454593040741  -6.154152364749221  -0.647512759135058
C  -4.929396963075099  -6.899421896625128  0.5008811324260756
C  -3.94587061634649  -7.93017149717679  0.43435506828582593
O  -3.2811344553990964  -8.08806505709719  -0.7470099003836095
C  -2.1572387284359307  -9.003228394345049  -0.7371205394391169
H  -1.3620964854905082  -8.636796186304789  -0.030466235777623085
C  -1.5656918371348425  -9.150804087188387  -2.1153806734402636
H  -2.386861013589236  -9.364480835058528  -2.8510067245890327
O  -0.8036188857583817  -8.01870671245193  -2.4884154344220235
C  0.05678857072551691  -8.299076842594298  -3.579377916115266
C  0.8343346284919941  -7.069205345498661  -3.990844827139191
H  0.1300841901386376  -6.253587873685076  -4.24254436629698
H  1.3745913622452157  -7.333025560570729  -4.90061955283173
O  1.721421925841344  -6.6567105011844365  -2.964606264488886
C  2.5633189964363736  -5.593548794943885  -3.3816067780988606
H  1.9377347770360593  -4.7934774557647595  -3.8390701800232545
H  3.2884787595812677  -5.961735939623049  -4.134580996858289
C  3.311274820374604  -5.017884068142267  -2.2091686525850784
H  4.233005086351161  -4.519085710332911  -2.5401247636652005
O  2.463770223225425  -4.044804004354011  -1.5535218637837107
H  3.6119465516884715  -5.834948492184214  -1.4990908552499502
H  -0.550361777127437  -8.634532041510079  -4.477830236102554
H  0.7790273098512288  -9.099958820623607  -3.295044288548777
H  -0.929626587217022  -10.030689310184094  -2.1021645236965796
H  -2.527164392852035  -10.00120853212188  -0.4335874662817119
C  -3.696966546009475  -8.680682984624436  1.5922801393682153
H  -2.8904777479569166  -9.46046104250776  1.6332884735530242
C  -4.427666043039875  -8.470636975500959  2.7609550718402316
C  -5.428906212726574  -7.504925766070356  2.801101924660836
H  -5.983390744907057  -7.3284291469572  3.687257059886582
H  -4.200704409917097  -9.044988968904379  3.6536206729802845
C  -5.67775429401874  -6.708141849610629  1.6519663772812385
H  -6.466169834061054  -5.958325852556266  1.7003246448109
H  -5.879121488734559  -4.436829986888994  0.26104624202133375
H  -5.54593593309884  -1.6764901171896334  -1.5353082431365643
H  -4.790268651120778  -2.467103535562151  -0.09937629147271476
H  -3.6181147197501584  -0.42450280443304145  -1.3280390306813679
H  -0.5320571745510445  -1.912707288907522  1.1145295394866992
H  0.4157960155933882  -0.5362493788695009  0.46503620151797564
C  2.885651785357158  -3.5083765735755503  -0.37186484181484275
C  4.114629579309397  -3.8157829215381254  0.25251503246209284
H  4.8340630465609244  -4.508298234934381  -0.24610133503406567
H  3.8227826015911974  -1.9630363708428233  3.0804244812533224
C  4.44175959498523  -3.247532542988078  1.4870734135012138
H  5.411400080643207  -3.4627973538240955  1.9541933722746698
H  -3.5528310436852997  9.673578273881414  -7.993667339019655
C  0.4093710246822595  -2.986325634314477  -1.2834463685985784
H  1.3813292751522765  -2.8917698764689885  -1.8206144467047074
C  -0.09718434041435087  -4.2635142984946635  -1.099162612585595
H  0.4557291742528633  -5.124064960093332  -1.496503792904083
C  -1.3091349159339984  -4.433818862938497  -0.40639816284023117
N  -1.7895065963769023  -5.695227412769498  -0.07173348947938518
H  -2.2956861273953697  -5.748411845445295  0.8287978712151853
C  -1.6072845133084441  -6.907726365149259  -0.6398189666629859
N  -1.5957036393874324  -7.903661350369816  0.3440297884524386
H  -1.3072263193465294  -7.527639260330353  1.2707558569564767
C  -1.8003241847574512  -9.261349237029098  0.2635864998846438
C  -1.2275917191002377  -10.088798480066195  1.2459214971642485
H  -0.6828001518672808  -9.632608428608666  1.9933407119673312
C  -1.4329175147197466  -11.468309830888938  1.2182262126904533
C  -0.8632625263559817  -12.30238691981399  2.324195765791073
F  0.3363282648728654  -11.82501468722799  2.783640350079426
F  -1.694042256400854  -12.331913932579901  3.417164929883597
F  -0.6506073001901624  -13.602826236864743  1.9388158608167134
C  -2.2039922911886696  -12.070743886791984  0.2173687897403933
H  -2.377198563903659  -13.156165491955285  0.18508195335463418
C  -2.781137427129032  -11.233271198095611  -0.752235400078124
C  -3.5958457412481266  -11.846597226569813  -1.8725326929505703
F  -4.209355891332315  -12.998360270978004  -1.4776559004757168
F  -2.797523545221975  -12.184945009245055  -2.9305945087236567
F  -4.550072763995598  -11.020946086487688  -2.3360000880158918
C  -2.585693722603204  -9.845325845488592  -0.7457014607562052
H  -3.0639636602237936  -9.228150658190373  -1.5259754827948848
S  -1.432359729654209  -7.2220362288305076  -2.287251737524876
C  -1.9551394170805332  -3.3033575902257795  0.12275557336891296
H  -2.8906290022001233  -3.4357675569842607  0.6856739468771187
C  -1.4226479189022236  -2.036616113007668  -0.05497027274847954
H  -1.9718727293992118  -1.1567923103492057  0.408006848398067
C  -0.22863141124608988  -1.845271427733751  -0.7629239304314474
C  0.3397410933332097  -0.45263996087768366  -0.9833507773269247
H  1.254491061833444  -0.54616137246345  -1.5819500872561414
H  0.5975579367029458  0.02870172911122104  -0.020223697442481425
C  -0.639938584858359  0.4517823382309567  -1.719453077250087
H  -1.5063291454235594  0.6238593729755362  -1.0614806568634176
H  -0.9545671074094179  -0.048598113406757015  -2.660843613266036
O  0.01571180422013896  1.672911589283025  -2.027963942771396
C  -0.7514873600003152  2.6807709530032415  -2.559066734407322
C  -2.1142985587742826  2.565423875390711  -2.87182343528921
H  -2.6218725787573938  1.6575154675223622  -2.7344919392726728
C  -2.819587407773102  3.67623968340071  -3.377260434221546
H  -3.883632967363158  3.5564298327991493  -3.591439423851452
C  -2.1885951796579306  4.915770568981418  -3.5772201452748056
C  -0.8096960656488914  5.00865429956935  -3.293313155745156
H  -0.28275062153897257  5.913874684660823  -3.4852278909519163
N  -2.9134364779786477  5.981666107034012  -4.090511397189653
C  -2.4211713795654086  7.360316659897644  -3.9436903172877074
H  -1.6193739592740406  7.556699852191948  -4.667353923132107
H  -2.0116404533266707  7.568901282678406  -2.945520725416453
C  -3.5492751888371172  8.34363153126968  -4.170938263694909
C  -4.198124128673291  8.95216980533544  -3.0854360218659536
H  -3.8482505415880204  8.704997173130401  -2.0924448948345677
C  -5.267271697131573  9.812899182927069  -3.262673579570719
C  -5.998310030559482  10.485556392076365  -2.0924787091775507
C  -5.370798750849771  10.123315384222622  -0.7310683120906397
H  -5.8987451225531276  10.647108171244923  0.0797105681507515
H  -5.422964511367766  9.031304865654366  -0.52997934590799
H  -4.343290486247671  10.451950203299948  -0.663301618764479
C  -7.472222885806279  10.036252817168062  -2.071745579572387
H  -7.543781825017678  8.985421936651456  -1.9528158625189036
H  -8.03524643981083  10.521050189729262  -1.2407496647175624
H  -8.010155303970254  10.305863576504624  -2.9885303808744643
C  -5.906882836606173  12.022541544759736  -2.270937604946454
H  -6.373970803118905  12.32776571290778  -3.2113432372845367
H  -6.402573693694162  12.56515924220713  -1.4592652871755827
H  -4.861183873625505  12.363088546738922  -2.2502429298661046
C  -5.7044223127921985  10.033014246618635  -4.57906754944962
H  -6.545055798205643  10.731566877620068  -4.73714916362321
C  -5.109532548622273  9.447122509524807  -5.692630132722259
C  -5.585647245822967  9.697395935860957  -7.1344654584323735
C  -4.450517159549619  10.352381529505116  -7.935644433192666
H  -4.780020565501918  10.540838019249804  -8.970336947289535
H  -4.149894142747014  11.289859597968892  -7.493002337637408
C  -5.9705445591227315  8.344916915390016  -7.786256442484653
H  -6.286955817991348  8.518703835911612  -8.839733955380149
H  -5.1073442425769535  7.657594340671403  -7.795602531849218
H  -6.781369251777101  7.83927478013826  -7.241123140340067
C  -6.814232521107518  10.622565580481798  -7.18630886449726
H  -6.6046193489308065  11.6186698209412  -6.802630327076718
H  -7.137130813384148  10.783602239414424  -8.246707903155711
H  -7.714625542266871  10.235053995632455  -6.602987569442275
C  -4.006117687023988  8.601368111988627  -5.46410091773677
H  -3.468851523393846  8.124099994106377  -6.310250927075884
C  -0.10405148355621607  3.9050323850236603  -2.7995623606622906
H  0.9458131572704915  3.9420755421713354  -2.574986648419841
H  -3.939396960003766  5.877332548773324  -3.945685221857561
