38
000 frame 0 XYZ file generated by PYTHON code : coordinates in Angstrom
C  0.0  5.0  0.0
C  0.0  4.755282581475767  1.545084971874737
C  0.0  4.045084971874737  2.938926261462366
C  0.0  2.938926261462366  4.045084971874737
C  0.0  1.5450849718747373  4.755282581475767
C  0.0  3.061616997868383e-16  5.0
C  0.0  -1.5450849718747368  4.755282581475768
C  0.0  -2.938926261462365  4.045084971874737
C  0.0  -4.045084971874736  2.9389262614623664
C  0.0  -4.755282581475767  1.5450849718747375
C  0.0  -5.0  6.123233995736766e-16
C  0.0  -4.755282581475768  -1.5450849718747364
C  0.0  -4.045084971874738  -2.938926261462365
C  0.0  -2.9389262614623664  -4.045084971874736
C  0.0  -1.5450849718747377  -4.755282581475767
C  0.0  -9.184850993605148e-16  -5.0
C  0.0  1.5450849718747361  -4.755282581475768
C  0.0  2.9389262614623646  -4.045084971874738
C  0.0  4.045084971874736  -2.938926261462367
C  0.0  4.755282581475767  -1.5450849718747381
C  0.0  0.0  0.0
C  1.0  -0.5  0.0
C  2.0  0.5  0.0
C  3.0  -0.5  0.0
C  4.0  0.5  0.0
C  5.0  -0.5  0.0
C  6.0  0.5  0.0
C  7.0  -0.5  0.0
C  8.0  0.5  0.0
C  9.0  -0.5  0.0
C  10.0  0.5  0.0
C  11.0  -0.5  0.0
C  12.0  0.5  0.0
C  13.0  -0.5  0.0
C  14.0  0.5  0.0
C  15.0  -0.5  0.0
C  16.0  0.5  0.0
C  17.0  -0.5  0.0
38
000 frame 1 XYZ file generated by PYTHON code : coordinates in Angstrom
C  2.56  3.5355339059327378  3.5355339059327373
C  2.56  2.269952498697734  4.4550326209418385
C  2.56  0.7821723252011545  4.938441702975688
C  2.56  -0.7821723252011538  4.938441702975689
C  2.56  -2.2699524986977333  4.455032620941839
C  2.56  -3.5355339059327373  3.535533905932738
C  2.56  -4.455032620941839  2.2699524986977346
C  2.56  -4.938441702975688  0.7821723252011551
C  2.56  -4.938441702975688  -0.782172325201153
C  2.56  -4.455032620941839  -2.2699524986977333
C  2.56  -3.535533905932738  -3.535533905932737
C  2.56  -2.269952498697735  -4.4550326209418385
C  2.56  -0.7821723252011561  -4.938441702975689
C  2.56  0.7821723252011531  -4.938441702975688
C  2.56  2.269952498697733  -4.455032620941839
C  2.56  3.535533905932737  -3.5355339059327386
C  2.56  4.4550326209418385  -2.269952498697735
C  2.56  4.938441702975688  -0.7821723252011561
C  2.56  4.938441702975689  0.7821723252011528
C  2.56  4.45503262094184  2.269952498697733
C  3.56  0.0  0.0
C  4.5600000000000005  -0.3535533905932738  -0.35355339059327373
C  5.5600000000000005  0.3535533905932738  0.35355339059327373
C  6.5600000000000005  -0.3535533905932738  -0.35355339059327373
C  7.5600000000000005  0.3535533905932738  0.35355339059327373
C  8.56  -0.3535533905932738  -0.35355339059327373
C  9.56  0.3535533905932738  0.35355339059327373
C  10.56  -0.3535533905932738  -0.35355339059327373
C  11.56  0.3535533905932738  0.35355339059327373
C  12.56  -0.3535533905932738  -0.35355339059327373
C  13.56  0.3535533905932738  0.35355339059327373
C  14.56  -0.3535533905932738  -0.35355339059327373
C  15.56  0.3535533905932738  0.35355339059327373
C  16.56  -0.3535533905932738  -0.35355339059327373
C  17.56  0.3535533905932738  0.35355339059327373
C  18.56  -0.3535533905932738  -0.35355339059327373
C  19.56  0.3535533905932738  0.35355339059327373
C  20.56  -0.3535533905932738  -0.35355339059327373
