38
000 frame 0 XYZ file generated by PYTHON code : coordinates in Angstrom
SI  0.0  5.0  0.0
SI  0.0  4.755282581475767  1.545084971874737
SI  0.0  4.045084971874737  2.938926261462366
SI  0.0  2.938926261462366  4.045084971874737
SI  0.0  1.5450849718747373  4.755282581475767
SI  0.0  3.061616997868383e-16  5.0
SI  0.0  -1.5450849718747368  4.755282581475768
SI  0.0  -2.938926261462365  4.045084971874737
SI  0.0  -4.045084971874736  2.9389262614623664
SI  0.0  -4.755282581475767  1.5450849718747375
C  0.0  -5.0  6.123233995736766e-16
C  0.0  -4.755282581475768  -1.5450849718747364
C  0.0  -4.045084971874738  -2.938926261462365
C  0.0  -2.9389262614623664  -4.045084971874736
C  0.0  -1.5450849718747377  -4.755282581475767
C  0.0  -9.184850993605148e-16  -5.0
C  0.0  1.5450849718747361  -4.755282581475768
C  0.0  2.9389262614623646  -4.045084971874738
C  0.0  4.045084971874736  -2.938926261462367
C  0.0  4.755282581475767  -1.5450849718747381
C  0.0  0.0  0.0
C  1.0  -0.5  0.0
C  2.0  0.5  0.0
C  3.0  -0.5  0.0
C  4.0  0.5  0.0
C  5.0  -0.5  0.0
C  6.0  0.5  0.0
C  7.0  -0.5  0.0
C  8.0  0.5  0.0
S  9.0  -0.5  0.0
S  10.0  0.5  0.0
S  11.0  -0.5  0.0
S  12.0  0.5  0.0
S  13.0  -0.5  0.0
S  14.0  0.5  0.0
S  15.0  -0.5  0.0
S  16.0  0.5  0.0
S  17.0  -0.5  0.0
38
000 frame 1 XYZ file generated by PYTHON code : coordinates in Angstrom
SI  0.0  2.5000000000000004  4.330127018922193
SI  0.0  1.039558454088797  4.890738003669028
SI  0.0  -0.522642316338267  4.972609476841367
SI  0.0  -2.0336832153790008  4.567727288213005
SI  0.0  -3.34565303179429  3.7157241273869714
SI  0.0  -4.330127018922193  2.500000000000001
SI  0.0  -4.8907380036690284  1.0395584540887977
SI  0.0  -4.972609476841367  -0.5226423163382661
SI  0.0  -4.567727288213005  -2.0336832153789994
SI  0.0  -3.7157241273869714  -3.3456530317942894
C  0.0  -2.500000000000001  -4.330127018922193
C  0.0  -1.039558454088798  -4.890738003669028
C  0.0  0.5226423163382657  -4.972609476841368
C  0.0  2.0336832153789994  -4.567727288213005
C  0.0  3.34565303179429  -3.715724127386972
C  0.0  4.330127018922193  -2.5000000000000013
C  0.0  4.890738003669028  -1.0395584540887983
C  0.0  4.972609476841367  0.5226423163382652
C  0.0  4.567727288213005  2.033683215378999
C  0.0  3.7157241273869723  3.3456530317942894
C  0.0  0.0  0.0
C  1.0  -0.4698463103929542  -0.17101007166283436
C  2.0  0.4698463103929542  0.17101007166283436
C  3.0  -0.4698463103929542  -0.17101007166283436
C  4.0  0.4698463103929542  0.17101007166283436
C  5.0  -0.4698463103929542  -0.17101007166283436
C  6.0  0.4698463103929542  0.17101007166283436
C  7.0  -0.4698463103929542  -0.17101007166283436
C  8.0  0.4698463103929542  0.17101007166283436
S  9.0  -0.4698463103929542  -0.17101007166283436
S  10.0  0.4698463103929542  0.17101007166283436
S  11.0  -0.4698463103929542  -0.17101007166283436
S  12.0  0.4698463103929542  0.17101007166283436
S  13.0  -0.4698463103929542  -0.17101007166283436
S  14.0  0.4698463103929542  0.17101007166283436
S  15.0  -0.4698463103929542  -0.17101007166283436
S  16.0  0.4698463103929542  0.17101007166283436
S  17.0  -0.4698463103929542  -0.17101007166283436
