154
000 frame 0 XYZ file generated by PYTHON code : coordinates in Angstrom
C  -4.112607359496048  -3.8316271941178304  4.6323717398398365
C  -2.8618657618906256  -4.27770925660789  4.143273744655261
H  -1.9562821786967777  -3.8231548738346683  4.479413387605543
C  -2.8049765420053205  -5.270906747382484  3.157523275617079
O  -1.6550020603577644  -5.76681499339615  2.614445632878429
C  -0.41939986191864675  -5.251458893911755  3.1107900086966143
C  0.7315799892985595  -6.08991889465734  2.5805732037812597
H  1.4887452726921961  -6.192220194314278  3.388748373973835
H  0.35876797303905317  -7.121790440771269  2.3661680821968782
O  1.3303391019424176  -5.494350533017917  1.4365684016651765
C  2.4668876449857353  -6.249103102004318  1.0190473502151844
H  2.1906299883612834  -7.2448817173881  0.7505734179154291
C  3.1516496247516654  -5.592213109887117  -0.1615355095227512
O  2.5446524772056853  -6.029849299479546  -1.3716090289336353
C  3.2095547891905314  -5.597765409682074  -2.561292373134675
H  2.90477441399306  -6.279445638299183  -3.3597793326647833
H  4.305609080361597  -5.70868756791107  -2.4275443914658332
C  2.9064256411596396  -4.171857168111614  -2.962203615355516
H  3.543513963090783  -3.892006268207999  -3.7789355883527618
O  1.5217740056801294  -4.118676057307452  -3.397943886236809
C  0.9896891113936381  -2.8724157737556824  -3.632189832505543
C  -0.37622735468010193  -2.875002634822511  -4.042628679126047
O  -0.9841732299463232  -4.087568074475351  -4.19267732604116
C  -2.4157337312109344  -4.06753915014462  -4.418501841534412
H  -2.9435344755123687  -3.611898287451563  -3.535494574832701
C  -2.9478406162932447  -5.458357833680522  -4.650434933348613
H  -2.319395469693522  -5.971731825743335  -5.426724890810785
O  -3.0195323806489864  -6.204672017667109  -3.4506724519759344
C  -3.861496617824411  -7.337087271468478  -3.5842368700931964
C  -3.895723394093092  -8.145024548072172  -2.306530849506111
H  -2.86710952098308  -8.447568581261335  -2.032717397886258
H  -4.460125964879059  -9.051642347708572  -2.5271264052817153
O  -4.491764116649362  -7.409560330152226  -1.2510360373971379
C  -4.66541505934841  -8.196371393216673  -0.08323184979421583
H  -3.7046470545593673  -8.70633529513704  0.15677687327779177
H  -5.447941294912388  -8.961416343236113  -0.2585816282701289
C  -5.064686867428889  -7.333368069791074  1.083492726716234
H  -5.595293936484099  -7.924150475725793  1.8433287087139476
O  -3.867655053762997  -6.776900195101041  1.6771929085474286
H  -5.763438597245028  -6.520743802449424  0.7464525784831482
H  -3.4728847485454795  -8.016359832398338  -4.4063973834307415
H  -4.899432604139614  -7.009736983518671  -3.8279929532628745
H  -3.94098706106326  -5.357947097358436  -5.077669643648708
H  -2.6119189984851428  -3.486593467221896  -5.339889454588299
C  -1.0138221467568214  -1.6391714064491056  -4.22208690645512
H  -2.1044910098229104  -1.5644938158034272  -4.477085677053413
C  -0.3221810835416886  -0.43903459522141297  -4.063510575596707
C  1.0271954997429158  -0.44394279038185047  -3.723142343663991
H  1.560699533772337  0.4622508749726961  -3.5887490282857004
H  -0.8418318967653147  0.5066107952501593  -4.181669360673666
C  1.6877594673544216  -1.681814161471371  -3.5026152553655265
H  2.744311603372149  -1.6672311104561905  -3.238708958061395
H  3.060754296386831  -3.492825110534982  -2.099337061513305
H  4.234978574023566  -5.8961971324044224  -0.14936821115011278
H  3.129477777495028  -4.473340088828072  -0.042836476010405855
H  3.1962452743841423  -6.316960764281307  1.868283514664435
H  -0.3095827838891011  -4.178597668707105  2.7854628194754354
H  -0.40763756105768856  -5.277502301863926  4.1988620950306
C  -4.005852870449031  -5.8392722459608635  2.6589296100010444
C  -5.244755323246164  -5.38598262813765  3.163295095561281
H  -6.195723874498831  -5.8329844990081545  2.786959610931406
H  -4.165850226846344  -3.0434154609606163  5.36857493048155
C  -5.2871902867096106  -4.388303535296156  4.141503988209019
H  -6.249924453351633  -4.0612705873640325  4.554946900160278
H  -4.312796172234364  3.949802507247205  12.87489463914179
C  -3.430496861146085  -3.7335890296636762  0.17897718180976963
H  -4.494336631287019  -4.0174857869494005  0.35172193803651974
C  -2.6027205725168914  -4.681213435849847  -0.4028854526086694
H  -3.0091600449400753  -5.669101819518693  -0.6539318748595457
C  -1.2582230241324912  -4.360027157698416  -0.6615669983736796
N  -0.4238049361172025  -5.219017881785318  -1.3685254942414218
H  0.2761049759824874  -4.754418209961106  -1.9720785515453974
C  -0.43614002209039904  -6.561471231742762  -1.522624667856386
N  0.02245734587533632  -6.903781932973077  -2.8003143102528982
H  -0.12349656289349364  -6.131480948988291  -3.4827230067624106
C  0.5233662870679427  -8.08367631153499  -3.298908911021666
C  0.41239090817334034  -8.333708597532386  -4.678345424652829
H  -0.03619698194016996  -7.608627045633277  -5.258490531822499
C  0.9315339708812935  -9.504934641528799  -5.230339367087321
C  0.8539180583348793  -9.696584638579072  -6.713783365751651
F  -0.28387500067749794  -9.160878215928005  -7.258243855108541
F  1.898857985727783  -9.083383949701307  -7.360106706884686
F  0.8767432078217658  -11.022494217242501  -7.069205840371046
C  1.569344134422705  -10.464946652955614  -4.43612666453709
H  1.9863415383946283  -11.390849542142192  -4.858027030196478
C  1.685035223560849  -10.199412008066911  -3.0611007660815615
C  2.3386893470966794  -11.22636746138489  -2.1593894694898434
F  3.2861900291253274  -11.948903561948864  -2.822008920527189
F  1.4210580547436815  -12.132097536149706  -1.7023356437018937
F  2.9306330642361944  -10.675978755396256  -1.0852731115433396
C  1.168230603561148  -9.031022305189527  -2.484549187484876
H  1.2880212830184554  -8.864463196229696  -1.3999372057816144
S  -0.9098670170842411  -7.694528699699271  -0.3671214816316216
C  -0.7983032952889058  -3.065812067817048  -0.3636587485840119
H  0.2463068910246411  -2.8041730143500287  -0.5870078536822618
C  -1.6464668332572092  -2.1260417637559876  0.19956237191940063
H  -1.2328195619826192  -1.0882180900396579  0.404266031232124
C  -2.9826815125049144  -2.4355190547860026  0.4863388142299452
C  -3.904930322941846  -1.4137312653672809  1.1316794578548255
H  -4.883929841019147  -1.8844094165382836  1.2861362957046563
H  -4.038861435036685  -0.5301623243248565  0.47811882341341794
C  -3.3716263053681317  -0.9345196477732047  2.4753838946046898
H  -2.4432392482021026  -0.3706436908822095  2.292867614127233
H  -3.1745149864233606  -1.8179894373160028  3.1205320200714532
O  -4.355365887510713  -0.1121370114730329  3.0854300147106977
C  -3.999282054076193  0.5417956524800873  4.23956241807017
C  -2.760648880017686  0.4048846108735189  4.884092706398009
H  -2.0317944899140157  -0.252211208462751  4.512898195561172
C  -2.4816885354599387  1.154205167816885  6.044915909492701
H  -1.5004272487092924  1.0374363019087554  6.509578487997111
C  -3.421286286217393  2.0504609790697854  6.5819945646836135
C  -4.6764019384357  2.1519076667050143  5.9456089882827285
H  -5.435601749167898  2.776823754963533  6.3542925361075735
N  -3.11492321908735  2.7592164179122314  7.73473196500249
C  -3.87636689887822  3.9653137322861136  8.095413949993734
H  -4.847961072891656  3.6873262045039565  8.524205474217366
H  -4.079365696099435  4.620894330365338  7.237176671444379
C  -3.1034327880661734  4.787496441218143  9.104253096427602
C  -2.3852705761795603  5.924142354051342  8.701862737444113
H  -2.4235335660354447  6.194090081086574  7.6553440401959705
C  -1.6266846073608807  6.6623574817771685  9.593451482078567
C  -0.8267600838472098  7.904705093472908  9.17759817975745
C  -1.0128593011165283  8.241598904995506  7.684180333232346
H  -0.45232903088966203  9.153494051173062  7.429815032308612
H  -0.6538200787696049  7.419530041134153  7.0277211711813035
H  -2.0441651164209125  8.464088747231582  7.449078252677772
C  0.6748119229073033  7.6652077632962135  9.427888425911465
H  1.0230240304154017  6.837605864208499  8.864564430649438
H  1.2824974391585928  8.557458318306711  9.150065666344462
H  0.9026297901044162  7.470598960399665  10.482773278955246
C  -1.3246498479690438  9.114053922478107  10.009530305239343
H  -1.1776631337685812  8.931234008903477  11.07755067005687
H  -0.7988311363486301  10.03954686121066  9.752756385836872
H  -2.3869507594393826  9.320783698135127  9.81289250455335
C  -1.5751876334459651  6.210445669690404  10.922198320924851
H  -0.9883568821436792  6.799789702567174  11.64878865395692
C  -2.2545202382392366  5.083482514585403  11.375680233545829
C  -2.202864043326295  4.59608959357464  12.834443709014643
C  -3.617009047481452  4.638888494108394  13.432587798326235
H  -3.593533786736695  4.295574548314648  14.479612816434997
H  -4.022615982687871  5.638869453784232  13.406273425108143
C  -1.6667638755739251  3.1422397277743217  12.867521002427598
H  -1.6564757689260512  2.775561685981427  13.9189838962989
H  -2.3166469398279435  2.474098712615345  12.2768823275619
H  -0.6538786349494851  3.06547339991224  12.445085932270294
C  -1.2803167365395818  5.468220035382786  13.704123735195761
H  -1.6280678294966933  6.495939465022089  13.78306999018834
H  -1.2624630970379953  5.087692722683266  14.757462448862613
H  -0.20258041692617246  5.519860178286314  13.334050397549577
C  -3.037019781483542  4.381391805993597  10.437696458856133
H  -3.6257907280960415  3.490060365050284  10.739833282239573
C  -4.960157962258055  1.4026586705325883  4.797648224656053
H  -5.905702846445571  1.455542865885631  4.290528570188254
H  -2.089452632854362  2.8373292041086975  7.898327479982173
154
000 frame 1 XYZ file generated by PYTHON code : coordinates in Angstrom
C  -5.208300494033459  -4.307397038202297  -0.6090892309807975
C  -4.584685532596904  -4.352175370971046  0.6604224389681075
H  -4.760965535425635  -3.580902909622909  1.3771897119235539
C  -3.67216425834481  -5.3711525622786995  0.9610418559411325
O  -3.0125024392799102  -5.502926745113154  2.1488050782012693
C  -3.297596805595348  -4.544149570517963  3.1676917123466755
C  -2.674405075413347  -4.9937648995803725  4.478560803552117
H  -3.37630139775446  -4.739303572867098  5.302880470850674
H  -2.585654227405831  -6.10813258147309  4.473540859365361
O  -1.4203795644079429  -4.3632303028682475  4.7061729203677665
C  -0.9046803724843013  -4.726900623932612  5.985827600551296
H  -0.746749544142497  -5.780760010990385  6.052234240228788
C  0.4015562767060368  -4.013936825531084  6.267976068320587
O  1.4834821272650007  -4.766483145847578  5.731916945070411
C  2.780303515769906  -4.271097764451917  6.07394858394372
H  3.4799443076639474  -5.101618287053917  5.947857903925726
H  2.790663859893865  -3.9853951817573527  7.146233039903269
C  3.234374933220697  -3.0894094875227696  5.247351111212277
H  4.148249184338596  -2.70333552772656  5.6560440552972615
O  3.4788209435512245  -3.5616802336719076  3.8956246388017637
C  3.7242893686290994  -2.606889501767216  2.9368388947544135
C  3.9424124586545473  -3.1219392566649047  1.6248401910453345
O  3.922731603490327  -4.477874092586044  1.471604706217987
C  3.9510164469389677  -4.973318423458829  0.10980508034577452
H  3.0379535666576842  -4.628290707762126  -0.44979844586042195
C  4.010205217799197  -6.478974338816887  0.08144559067517709
H  4.827589897637649  -6.8314415519557254  0.7661144193035956
O  2.7628224586517627  -7.063981303859428  0.40293849112396907
C  2.7003646433278177  -8.423125688415992  0.005530513417504879
C  1.3768024736527802  -9.044022024045809  0.39171403661677084
H  1.2261494295770947  -8.944280301895079  1.4834596330969485
H  1.4541444156875993  -10.107600278170283  0.16370522733274273
O  0.3034735329516385  -8.441643485325205  -0.3120945583273015
C  -0.9291341421542684  -9.102854164508186  -0.07445685835487326
H  -1.0701574868393882  -9.223641618565008  1.0238442545623052
H  -0.9165239254471571  -10.103646077505045  -0.5505294988441284
C  -2.076495929171262  -8.301718323971144  -0.6286961975443155
H  -2.941248010015176  -8.948030403945136  -0.8346160032639675
O  -2.4602065616807867  -7.306718056852163  0.3499570522479629
H  -1.7825598474255822  -7.820080438088301  -1.6002077867931965
H  3.518620850729386  -9.017439916822148  0.5209193798387042
H  2.8217708480472075  -8.499498123545944  -1.1005048094357537
H  4.30321273637794  -6.7725986115967345  -0.9219900350149343
H  4.875076791692418  -4.602517955432063  -0.3734765883076172
C  4.118553447135075  -2.2066843743667803  0.5773221473492289
H  4.22621030608655  -2.5380995184620927  -0.48979250787679074
C  4.140414542894527  -0.8328178099918713  0.8136586330693334
C  3.9887377802483783  -0.3383411347655363  2.105625646787509
H  3.99230675131063  0.7045350199420835  2.296076861172052
H  4.251907796148071  -0.14114681483360325  -0.015439768587964586
C  3.7750231567770323  -1.2430102799117368  3.179498209468038
H  3.6601155884908394  -0.8389392546250116  4.1843287785350824
H  2.450310888713629  -2.305415899803058  5.241171523352861
H  0.5168357460490993  -3.926493746994913  7.383870460003845
H  0.3592951825261077  -2.964023951144312  5.865043264075322
H  -1.6485579357256517  -4.445139924004941  6.77641368427793
H  -2.88623239583559  -3.5424062664248424  2.8575007158481847
H  -4.372923976935855  -4.441226593053209  3.3010926537418395
C  -3.383785390602754  -6.367797149017964  -0.007088370808483235
C  -4.020360258908319  -6.310524026878605  -1.2665436239713899
H  -3.8100575793346003  -7.094789731190884  -2.0323636700844507
H  -5.8880466029843985  -3.5067089924103527  -0.8599907212381409
C  -4.923135524001426  -5.283286029578935  -1.5560878411682044
H  -5.440819652594337  -5.259870362459358  -2.52366084390865
H  -5.946093561840043  3.9669924588527747  10.193170540232458
C  -5.063794250751764  -3.7163990780581067  -2.5027469170995635
H  -6.127634020892697  -4.000295835343831  -2.330002160872813
C  -4.2360179621225695  -4.664023484244278  -3.0846095515180023
H  -4.642457434545754  -5.651911867913124  -3.335655973768879
C  -2.89152041373817  -4.342837206092846  -3.343291097283013
N  -2.057102325722881  -5.201827930179748  -4.050249593150754
H  -1.3571924136231912  -4.737228258355536  -4.653802650454731
C  -2.069437411696078  -6.544281280137192  -4.204348766765719
N  -1.6108400437303425  -6.886591981367507  -5.482038409162232
H  -1.756793952499172  -6.114290997382722  -6.164447105671744
C  -1.109931102537736  -8.06648635992942  -5.980633009930999
C  -1.220906481432338  -8.316518645926816  -7.360069523562162
H  -1.6694943715458481  -7.591437094027707  -7.940214630731832
C  -0.7017634187243846  -9.487744689923229  -7.912063465996654
C  -0.7793793312707982  -9.679394686973502  -9.395507464660986
F  -1.917172390283176  -9.143688264322435  -9.939967954017874
F  0.2655605961221039  -9.066193998095738  -10.04183080579402
F  -0.7565541817839125  -11.005304265636934  -9.750929939280379
C  -0.06395325518297335  -10.447756701350045  -7.117850763446423
H  0.35304414878894974  -11.373659590536622  -7.539751129105811
C  0.05173783395517062  -10.182222056461342  -5.742824864990894
C  0.7053919574910006  -11.20917750977932  -4.841113568399177
F  1.6528926395196488  -11.931713610343294  -5.503733019436522
F  -0.2122393348619973  -12.114907584544136  -4.384059742611227
F  1.2973356746305158  -10.658788803790687  -3.7669972104526726
C  -0.46506678604453056  -9.013832353583958  -5.16627328639421
H  -0.3452761065872231  -8.847273244624127  -4.081661304690948
S  -2.54316440668992  -7.677338748093701  -3.048845580540955
C  -2.4316006848945846  -3.0486221162114786  -3.045382847493345
H  -1.3869904985810375  -2.786983062744459  -3.268731952591595
C  -3.279764222862888  -2.108851812150418  -2.4821617269899328
H  -2.866116951588298  -1.0710281384340883  -2.277458067677209
C  -4.615978902110593  -2.4183291031804335  -2.1953852846793884
C  -5.538227712547525  -1.3965413137617113  -1.5500446410545075
H  -6.517227230624825  -1.867219464932714  -1.395587803204677
H  -5.672158824642364  -0.512972372719287  -2.2036052754959154
C  -5.004923694973811  -0.9173296961676352  -0.20634020430464373
H  -4.076536637807781  -0.3534537392766399  -0.3888564847821001
H  -4.807812376029039  -1.8007994857104332  0.4388079211621201
O  -5.988663277116391  -0.09494705986746332  0.4037059158013647
C  -5.6325794436818715  0.5589856040856569  1.5578383191608371
C  -4.393946269623365  0.4220745624790885  2.2023686074886766
H  -3.6650918795196943  -0.23502125685718145  1.8311740966518397
C  -4.114985925065617  1.1713951194224546  3.3631918105833685
H  -3.133724638314971  1.054626253514325  3.8278543890877788
C  -5.054583675823071  2.067650930675355  3.900270465774281
C  -6.309699328041379  2.169097618310584  3.2638848893733954
H  -7.068899138773576  2.7940137065691015  3.6725684371982408
N  -4.748220608693028  2.776406369517801  5.053007866093159
C  -5.509664288483899  3.982503683891683  5.413689851084403
H  -6.481258462497335  3.704516156109526  5.842481375308033
H  -5.712663085705114  4.638084281970907  4.555452572535046
C  -4.736730177671852  4.8046863928237125  6.422528997518269
C  -4.0185679657852384  5.941332305656911  6.020138638534778
H  -4.056830955641123  6.211280032692144  4.973619941286639
C  -3.2599819969665598  6.679547433382738  6.911727383169234
C  -2.460057473452888  7.921895045078478  6.495874080848116
C  -2.6461566907222065  8.258788856601075  5.002456234323013
H  -2.0856264204953403  9.170684002778632  4.748090933399281
H  -2.2871174683752837  7.4367199927397225  4.34599707227197
H  -3.6774625060265915  8.481278698837148  4.767354153768439
C  -0.9584854666983758  7.682397714901783  6.746164327002134
H  -0.6102733591902766  6.854795815814069  6.182840331740104
H  -0.35079995044708645  8.57464826991228  6.468341567435129
H  -0.7306675995012619  7.487788912005235  7.801049180045913
C  -2.957947237574723  9.131243874083676  7.32780620633001
H  -2.810960523374261  8.948423960509047  8.395826571147536
H  -2.432128525954308  10.05673681281623  7.07103228692754
H  -4.020248149045061  9.337973649740697  7.131168405644017
C  -3.2084850230516437  6.227635621295973  8.24047422201552
H  -2.6216542717493576  6.816979654172743  8.967064555047587
C  -3.8878176278449157  5.100672466190972  8.693956134636496
C  -3.836161432931974  4.61327954518021  10.15271961010531
C  -5.250306437087131  4.6560784457139635  10.750863699416902
H  -5.226831176342374  4.312764499920218  11.797888717525664
H  -5.65591337229355  5.656059405389802  10.72454932619881
C  -3.3000612651796044  3.1594296793798913  10.185796903518266
H  -3.2897731585317294  2.7927516375869965  11.23725979738957
H  -3.9499443294336225  2.4912886642209138  9.595158228652567
H  -2.2871760245551642  3.0826633515178097  9.763361833360962
C  -2.913614126145259  5.485409986988356  11.022399636286428
H  -3.2613652191023714  6.513129416627659  11.101345891279006
H  -2.8957604866436752  5.104882674288835  12.07573834995328
H  -1.8358778065318515  5.537050129891884  10.652326298640244
C  -4.670317171089221  4.398581757599167  7.755972359946798
H  -5.259088117701721  3.5072503166558535  8.058109183330238
C  -6.593455351863734  1.4198486221381579  2.11592412574672
H  -7.539000236051249  1.4727328174912007  1.6088044712789205
H  -3.72275002246004  2.854519155714267  5.216603381072842
