154
XYZ file generated by PYTHON : coordinates in Angstrom
C  0.48374301965837513  6.161229235240112  0.6461297010613662
C  -0.449204441709111  5.11390026559622  0.8339372169443762
H  -0.9824037562619267  5.023028418090311  1.7543349412476077
C  -0.6273664873888989  4.143126622820398  -0.15966151805887258
O  -1.4935328652069642  3.0913497884074372  -0.07707265998909231
C  -2.2956893142249006  2.9926833620670337  1.0999882598794768
C  -3.3596602668989752  1.9258813744615964  0.9030136877138598
H  -4.298834771193583  2.278237132897543  1.3833350363793842
H  -3.5804929425927  1.8323943060452907  -0.18887016173786436
O  -2.9678304487843308  0.6833867693347244  1.472783540804956
C  -4.0224804380422  -0.2709966398838211  1.3606070376675796
H  -4.26896138461596  -0.4543859473086836  0.3380675025286667
C  -3.6420867962729027  -1.5811507513792689  2.0186163087396216
O  -2.9415070906115472  -2.398623131575843  1.0884679992853847
C  -2.6688747197170954  -3.724550809053835  1.5486043010623283
H  -2.494585088299745  -4.338260583310689  0.6608296263308251
H  -3.568255894033056  -4.125316730876014  2.0604904565434468
C  -1.4852860167279518  -3.8291252710037726  2.4834911294901922
H  -1.4361497192436294  -4.824756722111056  2.880420354503181
O  -0.2846143190782464  -3.5646420153311054  1.7099317925405877
C  0.8908661177186213  -3.4292385388864206  2.410689834737947
C  2.0362675679675184  -3.1553844568238585  1.6061688651777257
O  1.8545231423408546  -3.0963084535124077  0.2549077065850827
C  2.981047406660361  -2.6273949047725704  -0.527285686442626
H  3.237432925590965  -1.5686037140828502  -0.24601760313174306
C  2.680290221076017  -2.6893078686789123  -2.00275822326693
H  2.274676517698399  -3.7052234712900876  -2.256756782458404
O  1.8051055228817705  -1.6544431060231772  -2.4085429556875373
C  1.827879086679167  -1.4658153391355686  -3.813181153894598
C  0.858487513121369  -0.38432491898189114  -4.234043647370772
H  -0.15945350117476875  -0.6446731938631786  -3.886814522093514
H  0.8468026674015943  -0.38459810968081004  -5.324471033996152
O  1.2468775086708899  0.8794865968350938  -3.7220132566512656
C  0.43520440015432205  1.9305814605283569  -4.221392142741261
H  -0.6361202009267355  1.6563327147284483  -4.087998919583146
H  0.6388835801964937  2.082464116723492  -5.300204026283608
C  0.7076401462914172  3.2104994517656147  -3.4777338540502263
H  0.4328470033482338  4.082878444017562  -4.087128680825681
O  -0.0853283194378964  3.2187440710759194  -2.266885142192293
H  1.802817969472823  3.3000780758450716  -3.243705122834905
H  1.5197166859308104  -2.423055583354381  -4.33958912902515
H  2.853591727957151  -1.17274786457894  -4.138621445915573
H  3.6249454126614786  -2.5960358502052916  -2.5299001149751885
H  3.8364644486702746  -3.304579219805625  -0.34120837239450735
C  3.2578268694297043  -2.923334988084642  2.2542098487053353
H  4.184509509543971  -2.6347312344928073  1.6901825068709901
C  3.369394236863741  -3.014799025208994  3.6409431435873776
C  2.261291316006979  -3.343304673586672  4.416110056566927
H  2.331296931111317  -3.4046874957766415  5.472143408155123
H  4.318620826360873  -2.8055500532597555  4.124086414496536
C  1.0048176837848481  -3.5499895890604205  3.786937710870427
H  0.1485915837462816  -3.8081063194250895  4.408559971070229
H  -1.581203317772899  -3.0887989268078546  3.3033431492048972
H  -4.588857030509512  -2.0977930581169204  2.339338605872834
H  -3.0506913349293314  -1.381575102531617  2.955034408367451
H  -4.939992164859587  0.13311624311983236  1.8632344203705968
H  -1.6357590309627246  2.735800955096901  1.9760203537229937
H  -2.780006568784275  3.944661217933962  1.3094934740236042
C  0.1213565142159596  4.219634043673614  -1.3626990989370964
C  1.0434304279745266  5.275458028457345  -1.5351830660727204
H  1.630222330359303  5.352588478541244  -2.4814950716979483
H  0.6504464966578343  6.894766116466985  1.4208820948993357
C  1.2170030697383591  6.2331908033678864  -0.5318499180278847
H  1.910309842318854  7.07071556872345  -0.6822515556717054
H  1.4844761097819352  14.110683264477235  8.667016274435035
C  1.9411403704494699  1.9242110635952219  0.16521465846166522
H  2.46674215489929  2.5503837893149464  -0.5923100328076023
C  1.068185327192422  0.9540977206090294  -0.3023314021152802
H  0.9114448259027353  0.8472835142562958  -1.3831477371293008
C  0.39999822201650964  0.12429606187595638  0.6156585894664802
N  -0.37505855612504446  -0.9525139208334815  0.19891385182946694
H  -0.3577026108864632  -1.7754538286383759  0.8253894797692012
C  -1.0519459689611272  -1.1841409131922245  -0.9474944843325054
N  -1.0282882727528626  -2.550160526835131  -1.2531245105442945
H  -0.20292870551936892  -3.025542402900337  -0.8333309432931452
C  -1.8336944690258583  -3.312224074020847  -2.0669040242335095
C  -1.3096174291643512  -4.4957954960257585  -2.6166118731897106
H  -0.3384991038267222  -4.743670812928741  -2.3736515412474244
C  -2.1005179943691163  -5.312779008720895  -3.4246907765900843
C  -1.5234368171281527  -6.599178666437254  -3.9301739948322076
F  -0.18253753535873432  -6.50901700046718  -4.198225540279819
F  -1.6505446291100254  -7.6092407579850905  -3.0086173913918053
F  -2.130744107270547  -7.023444975949249  -5.086053870796004
C  -3.428599626112023  -4.982007921853093  -3.717928480871134
H  -4.0646723982596775  -5.618174634554002  -4.35029408386565
C  -3.945492450297078  -3.8033492255227492  -3.153858642077723
C  -5.367890849893243  -3.390227529751605  -3.471817343838644
F  -6.165949063183265  -4.470275172405469  -3.7073607023825574
F  -5.4148486884874245  -2.62844600020177  -4.607060145770278
F  -5.9370224728509475  -2.677104357267404  -2.4846012687240577
C  -3.168257149968491  -2.966014855279754  -2.341818202100647
H  -3.6202970763917146  -2.0528242008037187  -1.917297733791371
S  -1.8383897211991613  -0.03035618478684834  -1.8928574463305872
C  0.6701489028515016  0.2706900059455846  1.9871014807066019
H  0.1672483363336846  -0.3928333950862304  2.705695924657125
C  1.5611344654013806  1.2332642908822706  2.4336024498224047
H  1.7603275777337586  1.2996343681248965  3.5498473816098417
C  2.218059924826455  2.084867801801353  1.5354337621506153
C  3.1728719726431276  3.1605462910879933  2.0276811006927864
H  3.541312755982512  3.7169715464148334  1.1567751255435577
H  4.039683647199571  2.713415868458425  2.551594285547874
C  2.4913726359749946  4.1333037453610135  2.9810436509410287
H  2.223014259914632  3.582747295084715  3.8964900952346677
H  1.5831863149319116  4.543607603988638  2.4886655495293866
O  3.3933903864493637  5.191415153731078  3.2691013880784867
C  3.016236450991123  6.0927361752851565  4.234409916464947
C  1.7841860457360206  6.074011495096922  4.905287886759545
H  1.0548866129502221  5.357679339783677  4.6691108700102655
C  1.5124860088393612  7.02435174728089  5.9101974223725655
H  0.5512738045167119  6.968379233407905  6.425326696181871
C  2.4553330145438994  8.003155847177563  6.267344383936278
C  3.675828771775022  8.034055212671108  5.560217331335716
H  4.392841591533316  8.795139632181765  5.761636880841767
N  2.1448516993969515  8.930541066062647  7.251495857959504
C  3.2089492538153945  9.694282085682794  7.921536717281409
H  3.5635887183076695  10.503725646800728  7.270256096185814
H  4.084194895161455  9.081596293646136  8.178688124207595
C  2.69064555401353  10.286126355229474  9.214691621102869
C  2.9856697322541996  9.68287385560998  10.447041429680532
H  3.60768965137809  8.798314245892445  10.43352357172825
C  2.4803276777123835  10.171663239047998  11.639123256989551
C  2.7819621556270167  9.52646286873721  12.998893062706697
C  3.736220376577262  8.32173609750804  12.870628189640213
H  3.9550110245028445  7.905407612074221  13.865238612053679
H  3.298972964654105  7.513578636517527  12.245055467595517
H  4.6948789240907915  8.611419842500645  12.463905286392462
C  1.4724231091531572  9.029933468294464  13.64176840848275
H  1.0002997454730045  8.308521995558895  13.025184662913972
H  1.6565862788333707  8.569480765768354  14.640089729992665
H  0.7540010484811513  9.839310496069073  13.8187830677932
C  3.4603522391172454  10.583272653168205  13.907446772178734
H  2.8005238142670494  11.442757711737485  14.054442004998458
H  3.7124930078316734  10.182009771555883  14.89454781837996
H  4.415959071931132  10.920112425329583  13.479379721026437
C  1.6274135119781077  11.285163244816163  11.567712130307251
H  1.231076276109095  11.697175972155486  12.512589127482666
C  1.2884874445018288  11.916119722534363  10.374310425103038
C  0.36048013601958323  13.141507223482078  10.300560799946133
C  1.1379554572738864  14.330579848897408  9.716563705286662
H  0.4852091507026836  15.216924398245869  9.66185958398774
H  1.9974122645930965  14.571823843916953  10.323446464194257
C  -0.8486920654686128  12.81115691521611  9.388997203443937
H  -1.5069988713049076  13.705788109557169  9.308997052436668
H  -0.5091774152264098  12.542421040830623  8.374046323017623
H  -1.433896013004645  11.961273669898727  9.77046250643243
C  -0.17742925380420327  13.544763310390172  11.684788528839489
H  0.6117069984938082  13.853982209305252  12.366710964128975
H  -0.8496674208123082  14.436479062860418  11.597719030867358
H  -0.7591881675243387  12.720564291575752  12.217131555375998
C  1.8507427827937524  11.400285873212182  9.189897138152354
H  1.6433129656634713  11.873440861597338  8.207295055331013
C  3.945530342433501  7.097294842125511  4.555505171009772
H  4.863568771078744  7.094371190450489  3.9976350195674155
H  1.3888370874304872  8.603248105517034  7.888501546778966

