18
XYZ file generated by PYTHON : coordinates in Angstrom
C  0  0.0  0
C  1  -0.5  0
C  2  0.5  0
C  3  -0.5  0
C  4  0.5  0
C  5  -0.5  0
C  6  0.5  0
C  7  -0.5  0
C  8  0.5  0
C  9  -0.5  0
C  10  0.5  0
C  11  -0.5  0
C  12  0.5  0
C  13  -0.5  0
C  14  0.5  0
C  15  -0.5  0
C  16  0.5  0
C  17  -0.5  0

