208
000 frame 14862 XYZ file generated by PYTHON code : coordinates in Angstrom
N  -2.4899760629057197  3.989145861201182  1.5804620120153985
C  -3.0188846937536087  3.433243375440353  2.685771980103233
H  -4.116739884836916  3.327416598247022  2.8902765782164237
C  -2.2101365992165327  2.692149710160971  3.3369552634640876
H  -2.831633323287919  2.2470778422425517  4.188328073418363
C  -0.8862592902108272  2.368854775955505  3.191327427564997
C  -0.37010587312602744  3.113675327471918  2.1234255575097833
H  0.7189714603668408  2.9899223754205018  1.9382008287676546
C  -1.1558768000215243  3.8262576947889078  1.2232724093753884
H  -0.9684290013276313  4.142814748067357  0.2227125519876815
C  -0.09811017652393639  1.1554359162389178  3.729960164286399
C  -0.6605146383508622  0.04723891197295503  3.420715709309723
H  -1.6887351624684046  -0.09210311148007877  3.100242433238139
C  -0.05289068017081884  -1.157195736356076  3.8064741564284486
H  -0.6278216804811624  -1.9299427231030741  3.5649324206160564
N  1.1333401078078646  -1.1585388309501312  4.3941233306255505
C  1.748612733117375  0.10831451659417075  4.557965860914973
H  2.72445228461016  0.11679823802941038  5.1291395958196535
C  1.195310261409482  1.2944936933464228  4.376312069978712
H  1.582534671619421  2.1643930839753374  4.5512221392486305
C  2.0749174487707904  -2.260740548846608  4.71900338667584
H  1.6136738458037574  -2.8958870633149276  5.332555640401801
H  2.9947089962797366  -1.9406586026145742  5.02170343039105
C  2.6140193564751137  -2.9675097362914222  3.4747378194487015
C  1.9790860347493533  -3.913101214727606  2.6971148766875714
H  0.9257513939129686  -4.072432224705149  2.8255453061569025
C  2.3251529368952086  -4.376603066014406  1.462007206255106
H  1.8001474031461495  -5.260344446880466  1.0643885637440391
C  3.4386396138341184  -3.845456539780692  0.9792021806460762
C  4.2226864361450565  -2.873748341284772  1.5950492118991444
H  5.1483799648258  -2.3960816822142283  1.3507562751176199
C  3.805235160311753  -2.47389180649459  2.935854348022839
H  4.493294328808534  -1.6263966698912868  3.1074098949995763
C  3.8399293667684966  -4.357966555353162  -0.5555283867720966
H  4.78993927551401  -4.14734200415057  -0.842059062854473
H  3.579183590662449  -5.420091913556762  -0.4756479258745522
N  2.975975683004188  -3.675205486485539  -1.6720025744415854
C  3.294698796711563  -2.337456545040447  -2.0702196264596378
H  4.191999172095379  -1.9217507456519674  -1.6837166745451742
C  2.2790620506715515  -1.5973834494272652  -2.633707486709184
H  2.8123316703647623  -0.6898493594895712  -2.908245433841943
C  1.0902751439362757  -1.9817250975776224  -3.241765024076589
C  1.056832093864394  -3.4454170636081005  -2.84020110025699
H  0.27342844831151236  -4.16415060011964  -3.168523540304618
C  1.8669624070872486  -4.153306615263417  -2.0433661218427766
H  1.7254406096964228  -5.220296151204777  -1.8238919918543746
C  0.6166642189148934  0.28083419238642393  -3.9686465797647332
H  1.7173032816400606  0.5292556023625626  -4.060756311172174
C  -0.4064425459650528  1.1199744839767396  -4.37711442577367
H  -0.15888493522594832  2.1621455002251415  -4.444054396533731
N  -1.6646309805354493  0.6951861689394482  -4.361940859045522
C  0.207628057137937  -1.0955798673009274  -3.8731892162423676
C  -2.1439297421100947  -0.51586212484896  -4.215995333171018
H  -3.1908949672714035  -0.4816976946738107  -3.936127488114173
C  -1.1942123384576775  -1.4720073052745974  -3.7733871852876306
H  -1.3585940845657796  -2.3506117671599855  -3.2906800759085137
C  -2.6540940889424487  1.831337984038756  -4.526280698750818
H  -3.546481598741792  1.3441572296261568  -4.952512489586923
H  -2.0823261881115953  2.4915332617088657  -5.2294406872522785
C  -2.7949378060223924  2.5479482039985193  -3.2863829433193383
C  -2.2952417219429915  3.736502920503431  -2.971441449040898
H  -1.835342091602446  4.322089733380615  -4.002054497771807
C  -2.560212924122764  4.389019429431354  -1.7507764295372
H  -1.9091299099655659  5.232545819753597  -1.6923267146241474
C  -3.410595381077875  3.876671958130375  -0.8223952202184961
C  -4.145977775294756  2.6807321513684834  -1.2394639367614673
H  -4.8451836660101115  2.3115069529701016  -0.6422564087596819
C  -3.8057269408928236  2.095627490641589  -2.417705737190902
H  -4.341245656741508  1.0984921626267623  -2.652385019028589
C  -3.4079519267043334  4.513018775643992  0.5312498281701583
H  -3.46576601806844  5.624683512538296  0.5363251905998696
H  -4.46265115021553  4.3678364877325055  0.8014653305851449
Si  -5.302053117119198  -5.069782014082691  6.544669448319005
Si  -0.7709881309686701  10.33753989413736  2.436466943333577
O  -4.455003267925388  -4.483409211354402  5.18886971807919
C  -3.194047775106396  -4.193857467609389  4.762650214690835
H  -2.450432839628335  -4.8274624748123784  4.432033787437142
H  -2.5092809918042107  -3.440684043582061  5.517207951622679
C  -3.3645985861534844  -3.2703579634544084  3.5014539282165034
H  -4.223355856122305  -3.7077260561590926  2.899257351808954
H  -3.872819725626869  -2.207888337235177  3.569907601803919
O  -2.1108667432063113  -3.21082467283593  2.819987495321477
C  -1.9916795109061332  -3.7394353313771718  1.3583323051021463
H  -2.9860511793283955  -4.13955124945509  1.0171251334975582
H  -1.38833996673841  -4.5995598635735595  1.250527702135983
C  -1.5929105740705523  -2.7183752454858343  0.3159594063895067
H  -1.3200766384954734  -3.0681804685598504  -0.6636097044986223
H  -2.4800067510725423  -2.123951197295602  0.1259829281341409
O  -0.4363748703657747  -1.8835581350666775  0.6149574930620091
C  -0.1385301498604279  -0.5552444673451513  0.1607659960630375
C  -1.163666262728255  0.24126785635170403  0.2007417401111016
H  -2.1071103854553517  -0.21534647495788628  0.7082666386924337
C  -1.1377259326408748  1.5475383798723992  -0.2850591761884227
H  -2.0314259890533823  1.905429028025824  -0.28058696417456697
C  0.10503945838125897  2.172935497945384  -0.6851347911507394
H  0.35560730501231075  2.977838983512964  -1.4620105110578436
C  1.3406750326753099  1.360205347019252  -0.2408024570627796
C  1.1421729070159536  0.008592400145258094  -0.013194908413603174
C  2.3058178209919564  -0.794611690795772  0.6668024493211899
H  1.818602001392637  -1.7087235968487433  1.2366734458294995
C  3.629290377796027  -0.3522183037186913  0.4782160885511125
H  4.456396074513336  -0.7978151626578398  0.4473654244979421
C  3.7269152810256476  0.9931555780427018  0.029644088434913368
H  4.6568973542700425  1.058545220803061  -0.42448948847139034
C  2.6987338414296556  1.8639898612392196  -0.2993422946812085
O  2.9186356485625415  3.1770179473577507  -0.7671058036835474
C  2.780847937550251  4.162619274814285  0.38138798001513796
H  3.785977998657052  4.381959913797541  0.5857826765730013
H  2.0245712287422037  3.9868004158051864  1.2038181518952218
C  2.278406835679079  5.575470845108123  -0.005475544898379375
H  2.880150314703037  6.051502004751379  0.7530250931817084
H  2.5977237344486857  5.932730267627903  -0.895894701884726
O  0.8500551947974102  5.773179094896227  0.26044156164203935
C  0.678990261374726  7.354546032276362  0.28726254310990834
H  0.38689029002371805  7.58077453259096  -0.6386275073608083
H  1.556999505460756  7.735220236668098  0.5080384661699252
C  -0.2037291931171288  7.583026427829912  1.5259612223663959
H  -1.070382638829213  6.971664246946263  1.3136778728182692
H  0.3672814675044183  7.17914577217151  2.3705756621227794
O  -0.3615223446681536  9.019198752675962  1.4300696931014547
C  -6.97367690175776  -5.5262647435653145  5.729016960974575
H  -6.526799479799317  -5.48329474238563  4.708552859153281
C  -7.597971844170624  -6.807866335590309  6.023958856578781
H  -8.742344748340557  -6.7564803078060525  5.918778100572283
H  -7.463327750053562  -7.335009722232005  7.024927036008245
H  -7.314575256718759  -7.618527531816317  5.345524831277099
C  -8.26450340915053  -4.1342087093333415  5.8198772581780265
H  -8.302847975751313  -3.8544026111665564  6.793855613357501
H  -9.299559289194278  -4.381430552088798  5.611587654126803
H  -7.992994685978957  -3.1974573186905495  5.406789470642227
C  -5.545298425643879  -3.7165579611179207  7.953508512248564
H  -6.6195138158311675  -4.03099563593508  8.099411973153412
C  -5.228055009550608  -2.226613782007722  7.7380593990970485
H  -6.054538884528203  -1.8105003943661666  7.07997892161724
H  -4.265365939846479  -2.241799962817505  7.270516984809413
H  -5.226918979121823  -1.721013151471851  8.812243097626009
C  -4.97185052820023  -4.17692107579881  9.541370308786968
H  -5.972335683443227  -4.278799840266979  9.89976247174258
H  -4.3203661603271675  -3.3475146531820865  9.850131981353082
H  -4.565696392496162  -5.139482850649761  9.469853497087945
C  -4.169248050576896  -6.90398028777547  7.0549315291673595
H  -3.0737410597189347  -6.491623788033917  7.45369453103244
C  -4.712149700845474  -7.715051171104617  8.340568774517813
H  -5.094863304870734  -8.693902331162144  8.033564994736274
H  -5.293947377880024  -7.202411602340022  9.04266915643213
H  -3.928475775097689  -8.036760111600968  9.124839622130525
C  -3.814637757664459  -7.600841739114455  5.739579666470042
H  -4.76247494855221  -7.843443118001854  5.382671125182952
H  -3.440590043702286  -8.6516420510835  6.183216379437675
H  -3.0097140953605384  -7.147445426596449  5.236625635186608
C  1.1928651061782447  10.692322757889984  3.124057765272977
H  1.2088884977646537  11.735865254103853  2.7935720354158287
C  1.3439454183031503  10.16860362196311  4.896677556022682
H  1.4281439938425708  9.09801344824129  5.113552227656519
H  0.45519334232773423  10.671114001506908  5.355083036129399
H  2.2622945898862112  10.66801528369302  5.220826191356773
C  2.393569888915102  9.894886921782808  2.651835986811673
H  3.212522021499816  10.264199511911555  3.098499951325443
H  2.531721805518165  9.726751375180418  1.5765678960347955
H  2.239579309572036  8.841772889772264  2.9357521408047513
C  -2.0564152423191357  9.571770872911163  3.588174307014811
H  -1.5770277060743072  8.99113609529809  4.239066888048141
C  -2.999958885605512  8.598032543993666  2.9297682456734258
H  -2.6031052787520994  7.5238960638296195  2.6912070192978863
H  -3.491832773275763  8.92845562991775  2.047355956826165
H  -3.8298515697760296  8.524501115161309  3.7122719671992974
C  -2.6611648157858467  10.817871769587448  4.3407765862498895
H  -3.6922434259389454  10.783557420813942  3.9233855246669043
H  -2.213254830784459  11.75266221575254  3.916635074479864
H  -2.5636052776551095  10.873128311593735  5.478082155426441
C  -1.2906389642867075  11.826348796478362  1.2754400008463085
H  -2.177346981800215  12.476801736058281  1.5309254288299012
C  -1.7948791440287801  11.17098638644023  -0.025162549957808384
H  -2.0817895749957143  11.911289202400907  -0.6909684728734251
H  -2.8246330145739433  10.952689111754655  0.23759539900502752
H  -1.2086466515419354  10.064971886703606  -0.27419740133773995
C  -0.10612190674772116  12.767602551975298  1.1429697990905765
H  0.9120727502743081  12.288544650222263  0.7402114420141347
H  0.04732720106362809  13.394115900055297  2.002592871306941
H  -0.4038962589953196  13.572126696425657  0.3390551862589445
P  0.2858608074785378  5.153327369258611  5.1014461717131026
F  1.227556951158993  4.565180399002799  3.785758940358146
F  -0.05492601038859447  3.5321960994272645  5.382224644675216
F  -1.0939685398557282  5.036990856468059  4.223858507112268
F  0.507411445527707  6.6724246497420605  4.455257473742677
F  1.644458471958271  4.9801531028726815  5.903338983126811
F  -0.3456476244189074  5.868991269536254  6.348528890515576
P  -4.7091398299083  0.5706579255889903  1.8485315389307055
F  -5.826817812657715  -0.52181951493145  2.3569397901228237
F  -4.160120236211708  -0.780203739929794  0.9888343592392568
F  -3.4973970833404984  0.2805429283579144  2.9635075544642793
F  -5.269189587934897  1.830244605233565  2.825808700470143
F  -5.751167300003395  1.2621338847888732  0.8266986129025526
F  -3.637614109150013  1.5763186587582814  1.2197633698172259
P  -5.980455625575209  -1.0061524507357198  -5.214565861109348
F  -5.158988129888478  0.3699810436404601  -5.909181025325845
F  -7.08334314053921  0.034792116929609644  -4.614680071052123
F  -4.910840333638277  -0.9691992489486256  -3.8363545274950903
F  -4.883892519718684  -1.7790321191001512  -6.014611070266162
F  -6.938844467907551  -1.228141266397249  -6.496182654498782
F  -6.605381419739524  -2.370440287876393  -4.670248924012286
P  7.038821925198288  -1.6626610148127468  -3.092249286086767
F  8.278088395732416  -2.3354654501245133  -3.95568355443714
F  5.868113993914586  -2.2196448150127224  -4.2116467206437145
F  6.979687133675441  -0.24458700223560875  -4.0807738461200715
F  7.970085777232553  -1.0064519971440273  -2.009214594064651
F  6.902675380931557  -2.967015175206745  -2.2030209740542688
F  5.655753905461131  -1.2263797314086813  -2.2510297123618757
208
000 frame 14872 XYZ file generated by PYTHON code : coordinates in Angstrom
N  -2.5090062009529044  4.061975235346864  1.5953081187933118
C  -3.06649236250256  3.4744080431281774  2.6239542537093445
H  -4.036810743471686  3.1647827630936916  2.733360288909745
C  -2.2259637595733093  2.6704467993729675  3.374228284833365
H  -2.7819934090451546  2.291076461835672  4.159589257289962
C  -0.9757066327566318  2.3616882405508135  3.1562380294067993
C  -0.38329624457414385  3.1592078707151825  2.0866188874814466
H  0.5930560751026598  2.8625100699175077  2.0827884209619616
C  -1.2265253895366337  3.8185309682753226  1.2525278278467513
H  -0.8618435638945816  4.103859398733869  0.26648944645743555
C  -0.1410410636163514  1.2370949705891783  3.6840256605422708
C  -0.6434074482139527  -0.02396570367687069  3.452881479474788
H  -1.6252714238153516  -0.08482130117890105  3.0557030129201537
C  0.011011560106188438  -1.2447825207242011  3.79716767574531
H  -0.563499094179017  -2.242627702112942  3.5232652241047666
N  1.1408739993627497  -1.1707645799019335  4.3923154910165305
C  1.812345106571899  0.09758861641042288  4.517531361356448
H  2.691704355948476  0.18309624573474914  4.988662539950794
C  1.1615046009561871  1.2884107897490877  4.365862600696127
H  1.586343980791869  2.4236828223511475  4.512411179027818
C  2.1254266326231983  -2.2918448647994065  4.7119575643460925
H  1.703519823317627  -2.991525798750424  5.550057070083565
H  2.957068672771842  -1.7186397120231447  5.253175370764832
C  2.594703254365149  -2.8851977699525575  3.438178213554645
C  1.9654292425813686  -3.8820423571066542  2.6696064434939086
H  0.9975354398703957  -4.181526478405365  3.1579673645042794
C  2.309547028849756  -4.386290146728497  1.5137710503137602
H  1.7465378696858598  -5.196645135592767  1.1858101099000526
C  3.460752872208542  -3.881716994685449  0.9209214073179831
C  4.267342667644075  -2.879783476245405  1.5644502625566903
H  5.10179060851032  -2.2968586149680204  1.1830480926535958
C  3.8061290229823697  -2.4893239294555665  2.8558636564546513
H  4.080891574677801  -1.5137508682241634  3.2876810783149986
C  3.8055585754195276  -4.382465662211865  -0.5385024483337735
H  5.019155677233722  -4.287842575014047  -0.5186733990981811
H  3.700570634986322  -5.474538037546071  -0.4880866756756827
N  3.003039125259927  -3.692480306430048  -1.6837436911211852
C  3.1905243452362684  -2.4023485127890045  -2.0894114806490203
H  4.193224976199864  -2.098456654897312  -1.8497368514157913
C  2.347119392603617  -1.5055088764980118  -2.646904256972562
H  2.777985046227684  -0.5158587390114466  -2.765811609598526
C  1.1757175328722134  -2.0328006597117945  -3.136403431735882
C  1.0044092343294801  -3.5165357492840585  -2.8777861333811523
H  0.12533538324394816  -4.017017267964889  -3.1400800664301194
C  1.8675432745706562  -4.1484286995236825  -2.0074819117268063
H  1.9519570972263798  -5.172187252122592  -1.8255117184424556
C  0.6423074743815664  0.2771096214499662  -4.047261240879303
H  1.5934198750274273  0.6634750031067888  -4.04973703495277
C  -0.4008628211486622  1.1567357970647327  -4.410452515878276
H  -0.4034966950279233  2.2494245731362863  -4.3125454513068515
N  -1.6516974056328924  0.6918410728999622  -4.416308080834016
C  0.147583237538376  -1.0747746180753797  -3.849129355776322
C  -2.1428951084742045  -0.5285741601120281  -4.251878024716043
H  -3.2076422616281497  -0.5149950519736913  -4.080878717059828
C  -1.23879310793019  -1.5050350433488677  -3.7805597970432854
H  -1.3935908364535672  -2.583973040094063  -3.4198378967146144
C  -2.659665456352369  1.8089391187060455  -4.536839653010725
H  -3.624629554140061  1.5122504426794148  -4.919331779807171
H  -1.9978314076021153  2.4478229430445118  -5.07406522393313
C  -2.8261838883044788  2.5203209438882266  -3.3240799848897913
C  -2.2953737215277985  3.722071770583285  -3.03570107043605
H  -1.672410579532493  4.210007378059008  -3.591551236300758
C  -2.577812290252497  4.3924563172703515  -1.7223763178167062
H  -1.9625467026183603  5.259262086900797  -1.5629002483624872
C  -3.3569046187747764  3.7864608899614596  -0.8315390193070498
C  -4.117484428167961  2.685962141168818  -1.2217715023025322
H  -4.854551298806191  2.357268558616186  -0.394590410592185
C  -3.830765556649809  2.0597697116006217  -2.392051076691065
H  -4.279204927565569  1.1385834010400055  -2.4976667285668217
C  -3.500145391386138  4.480821082846668  0.5260213142172688
H  -3.432901938432875  5.544545023166963  0.6584634261419311
H  -4.480521817952596  4.331927824996996  0.9711676737405519
Si  -5.263871828002763  -5.089537445134071  6.472752015879413
Si  -0.6905806816497371  10.330527151479654  2.4172168897409385
O  -4.41952415431765  -4.518192782793078  5.226214560748415
C  -3.1791374743540963  -4.182028606857787  4.765035183735017
H  -2.3714563903895978  -4.926157275015975  4.403436976692818
H  -2.7654106231177704  -3.7780707439038475  5.577154017227121
C  -3.380848856581612  -3.2677718694035214  3.4560731723381863
H  -4.311795444538382  -3.583342173663784  3.091125405917747
H  -3.4894241248646862  -2.287496348166064  3.7887633809976218
O  -2.1155772586747417  -3.285666402297378  2.7420923086112934
C  -2.0380266172316754  -3.771081642800577  1.3790980823316334
H  -2.9272750262196436  -4.1553978619383125  0.9553060143890209
H  -1.13810234362654  -4.5715348243594445  1.0947246395926713
C  -1.5878229713146428  -2.5602972642161452  0.2579425187007628
H  -1.285576110807541  -3.3087857110555166  -0.5387671980011303
H  -2.4639201237267288  -1.9192463005425466  0.2952796450683295
O  -0.33641920884507165  -1.8245559686725155  0.6306300915151183
C  -0.1466364896067353  -0.6011491183091907  0.190442178502531
C  -1.2012430511330903  0.28266266517767696  0.2703854164594138
H  -2.0993369315886103  -0.035795161367197306  0.5453101906591723
C  -1.1318086433540941  1.5867901314416932  -0.34391730386176816
H  -2.216543035302134  2.086728888032346  -0.38640961228038645
C  0.14779367565276139  2.22731495370096  -0.6673479365430841
H  0.4081491190562074  3.122206718257713  -1.145367173450841
C  1.2794266363240936  1.434677284270214  -0.24312495612351503
C  1.1481020478208603  0.0003336803920255498  0.09054201971331885
C  2.3342587946758093  -0.7774011118481376  0.7191569179781038
H  2.111639989653989  -1.5397107240410182  1.2801199291791197
C  3.5671146976784853  -0.39993941162367097  0.4526136803087959
H  4.641362825042497  -1.075631647955123  0.24583636950792093
C  3.771052099137293  1.0325448070326884  0.08713006435032154
H  4.804130672000767  1.2294898832320402  -0.31747432425126537
C  2.675123213305887  1.8875841412097474  -0.29614666019147656
O  2.9114507085263073  3.1176384500929775  -0.7662732964172121
C  2.751949606154746  4.140195011660161  0.3230035362729336
H  3.773129279277825  4.50041174472236  0.6189329227461597
H  2.0397889338177526  4.154445987259021  1.0894447623660741
C  2.2618266726660607  5.58958395477198  -0.07238188371886096
H  2.5841679840354215  6.285058503705803  0.7317514452482168
H  2.4950843891174057  6.043999391093502  -1.1189036155072223
O  0.8138119472956644  5.798587518171977  0.21389402148606976
C  0.645870923598456  7.283427230703711  0.3612548961590424
H  0.29579567680550517  7.867611460392808  -0.6568815603414546
H  1.7145076518238473  7.8219578637419716  0.5897171325726761
C  -0.21157820869202998  7.586628586790825  1.494694221315771
H  -1.2007720754081104  7.134165053565402  1.5104786599062279
H  0.1660702126501498  7.271628329910271  2.4699665569377096
O  -0.38473290334876864  9.075714954471762  1.477980010435967
C  -7.023520901551848  -5.548823185631676  5.664124141190785
H  -6.674304999002997  -5.45716322601819  4.671466535178359
C  -7.586481875596993  -6.932748637856039  6.0653433168459046
H  -8.59730132569193  -6.6532233896520525  6.317117891745124
H  -7.614316169428684  -7.25298554496773  7.106266376940597
H  -7.320173303130275  -7.7965517245469895  5.4653041189469915
C  -8.335097666436969  -4.175101677111452  5.902552771732743
H  -8.5005850766301  -3.7886384318342814  7.0111928722281975
H  -9.393357530359943  -4.358403254225808  5.6620651919207425
H  -7.992902236326752  -3.297527183915647  5.289414284755283
C  -5.489360961426752  -3.696253399359766  7.9672209226320625
H  -6.540971301242366  -3.8274239014008273  7.769945170345026
C  -5.203117132602461  -2.1837185228711062  7.755340683744486
H  -6.002863293581766  -1.8657282985843369  7.145023649582421
H  -4.232202650854314  -2.299387398717853  7.237618052137109
H  -5.097517069335506  -1.9423146978029737  8.739438198990086
C  -4.935305516552352  -4.1801102523732006  9.484836548293078
H  -5.870008106459956  -4.308834002038449  10.069755968730956
H  -4.172431170901493  -3.516167271988642  9.98530267954205
H  -4.3896286773696005  -5.162252070737641  9.514546754148817
C  -4.195313704452208  -6.778515684050002  7.087231334139843
H  -3.296734563569933  -6.462493556181005  7.359923906495071
C  -4.754507848440013  -7.697548674518781  8.377361341843281
H  -5.211084869106835  -8.649922276533626  8.022770049090878
H  -5.546354345350334  -7.190409190218907  8.98871974960818
H  -3.8578961062275567  -7.93182832894701  8.905375878247137
C  -3.868931750642446  -7.62345542950677  5.817341069477753
H  -4.844630243370136  -7.796634527335247  5.297467643590926
H  -3.4888806976955027  -8.616697281849554  6.045759457453898
H  -3.151943278956806  -7.14565069095752  5.091032406075722
C  1.1578470448371623  10.716348505201063  3.195845780778111
H  1.2481492827749565  11.802304245592179  3.1162969389395454
C  1.377088509128972  10.1200120111024  4.946126986712732
H  1.2142934830879977  9.055825300978654  4.978042049114509
H  0.553091734375146  10.69991608206416  5.326279230842145
H  2.275666880198791  10.67687418707203  5.075619459796974
C  2.4386760219133  9.887120610710955  2.6584064990727536
H  3.3210132626334734  10.509051233887904  3.1391044565901938
H  2.6113234510843686  9.765047721072841  1.5913603600481605
H  2.420324524540033  8.84714852516439  2.947481128147324
C  -2.0499319288485878  9.608560733846257  3.5555356798370563
H  -1.5261175885311973  8.981589263173978  4.437641646809288
C  -2.969406608381607  8.516283754212377  2.8939043184936946
H  -2.446835811570857  7.607884003228027  2.856185893893729
H  -3.5749665727001294  8.793522959830426  1.9577744484778143
H  -3.75531390965171  8.609722930795918  3.609926739391385
C  -2.6385185394176194  10.788703652666944  4.318297563886238
H  -3.7110048477570747  10.684398706157303  4.1013949760869615
H  -2.2671778719127724  11.684252145926084  3.9311843165684177
H  -2.748426478997832  11.007412159592887  5.415645970946955
C  -1.3491690688086915  11.75200723756208  1.3390319867915053
H  -2.0620291291858255  12.506203174596838  1.5463932348729523
C  -1.9115638156273709  11.038874826927342  -0.0008119592920944172
H  -1.727885750678127  11.720121689311613  -0.9843919691715053
H  -2.9335493788813394  10.589359964792722  0.05649020337655142
H  -1.408665542843309  10.30759439939377  -0.3847219671435422
C  -0.06880114134103667  12.706667765381455  1.0540915572957532
H  0.8912025998771476  12.36552979500598  1.0338649373290512
H  -0.028784902496313717  13.299220032829828  2.0327031676882585
H  -0.2617281875713632  13.320219246332162  0.26753464259904847
P  0.2551514699447702  5.208351630365736  5.080185858319546
F  1.189195373067395  4.547841934750296  3.7294363198440723
F  -0.10221541925740274  3.4843519016641475  5.362636397946353
F  -1.0920993038362707  5.066013241621452  4.242057248870238
F  0.5523481308786059  6.718202458217779  4.387533958937237
F  1.6413090992413955  5.052793425685342  5.860111907998089
F  -0.38172193969960183  5.953790001408096  6.373577141566376
P  -4.693155004409326  0.5922546284971758  1.8891567864570846
F  -5.783684373387826  -0.5191742148966502  2.3980321567443004
F  -4.172292007547868  -0.7535713573871736  0.9965462174485851
F  -3.463923846882159  0.26996034029072224  2.928186722311806
F  -5.274764629737942  1.832019932355924  2.8188399737876053
F  -5.744916764915569  1.2232837367746965  0.8009125539517771
F  -3.642592178463144  1.575844483034294  1.2372561582538042
P  -5.978682783099436  -1.0180521654743897  -5.220934738090666
F  -5.183907914727723  0.3326234477812154  -5.945471948733902
F  -7.103800045407986  -0.03254086085152281  -4.607034095727834
F  -4.8987134243528185  -0.9266695545849614  -3.9215571108115896
F  -4.853272148320743  -1.7659979140574087  -5.982099641598012
F  -6.900593193519894  -1.2258333887592712  -6.54636036911573
F  -6.6063106729479015  -2.4446025550669788  -4.6425425976232635
P  7.038838620171027  -1.6485571770652792  -3.139979855935187
F  8.22847381582685  -2.3958378973993235  -3.953963867751762
F  5.806224549667309  -2.276220649798796  -4.176832807461062
F  6.954542005379526  -0.30216523451519456  -4.043016098571029
F  7.971819582027013  -1.0689556962795874  -1.9833144676296082
F  6.8538019115616935  -2.9880809008609597  -2.165610081187696
F  5.5994282229968695  -1.2357428054102058  -2.235274386938688
