208
000 frame 55220 XYZ file generated by PYTHON code : coordinates in Angstrom
N  -3.0417493608223016  -2.6816286867422745  1.9368850816439518
C  -3.8328203898696906  -2.797993157750328  0.9045520353774767
H  -4.871229581618748  -2.631056102823745  0.8465593136666841
C  -3.437254988962756  -3.4898821687399466  -0.2668985382373707
H  -3.9305431857445066  -3.6221966233582927  -1.2897112403879094
C  -2.140218443064512  -3.8956673658644116  -0.428129028854911
C  -1.360692064204057  -4.002011433973051  0.7353167016126413
H  -0.5586282959069676  -4.598033074879747  0.6298267644718835
C  -1.9171395471833088  -3.5364753421305104  1.943732696387357
H  -1.1483542914612055  -3.447916883470906  2.731371809916627
C  -1.5396970567090713  -3.7498812537187836  -1.689458546235334
C  -1.372181076562316  -2.6422561604461894  -2.5363480071367093
H  -2.087278234875872  -1.8644365827303933  -2.4629139857436937
C  -0.4316071749709365  -2.762782663394651  -3.4839016801013396
H  -0.7514605805121962  -2.051598503740909  -4.244662056267097
N  0.5768043352927408  -3.7009745247949764  -3.4637182826800785
C  0.4654952042550083  -4.659826856811214  -2.610054236313427
H  1.3814243825740977  -5.149384317671595  -2.449626871015637
C  -0.5856073329309472  -4.810580029845312  -1.7528529181083254
H  -0.6946862655647242  -5.7771838237361095  -1.2781630992879713
C  2.0241531254719107  -3.261699704788756  -4.296351307815922
H  1.8748544971466297  -3.0869231432117905  -5.3595053007990545
H  2.630169718988536  -4.297943633721713  -4.062449326382329
C  2.7348639528478635  -2.0587604273837576  -3.674890957486839
C  3.170467758438432  -1.106812965884808  -4.757249807493641
H  3.027733176197296  -1.3186831234148568  -5.772211073482728
C  3.6485320668589707  0.11271415947146633  -4.296703270701511
H  3.727577076178919  0.9340899324662213  -5.051775926076101
C  3.99681484385439  0.2311000314259013  -2.887404249369627
C  3.80032526262295  -0.7409809600716804  -2.040782316748522
H  3.7730179343921577  -0.7136235432726796  -0.9588620188893635
C  3.324224956538177  -1.9523041613673215  -2.4313335904771542
H  3.329808522690996  -2.811454499662745  -1.7578448122992323
C  4.661463281645631  1.447623159704197  -2.637763037606653
H  5.564586345668648  1.603044947189334  -2.046247266980112
H  4.828027097880444  2.018329664266778  -3.551103610284832
N  3.7417291106288633  2.4393970195038013  -1.7424368273121906
C  4.0609268143368995  2.7176505460519835  -0.38295575402324844
H  4.906501445590497  2.1752141419027207  -0.11761080215132826
C  3.0610764754721345  3.4132770803576564  0.47003160460617927
H  3.5404089574955484  3.593593214264686  1.4818796259539844
C  1.6961527542386683  3.5692369841780427  -0.03896383404364385
C  1.3840241262613182  3.368405639743702  -1.2889821994734338
H  0.5109274037344249  3.7178641901193314  -1.6238086939448142
C  2.534586772030263  2.949885241994103  -2.2975981510444194
H  2.525517245309663  2.831891213256838  -3.306087792240098
C  0.8321572332886091  3.7397147650164912  2.3592508528997267
H  1.7960620989485585  3.2320978303411714  2.598053875396966
C  -0.05167607321794828  3.8646230925758176  3.267761882289333
H  0.2441527910334147  3.915722946365065  4.344281198547553
N  -1.2879271928508973  4.096215629081864  2.9182639133817405
C  0.6650157554945177  3.9589041433298  1.0370368089122397
C  -1.7866009985171816  4.546336128814769  1.6501744922521553
H  -2.8003807199735715  4.6982472941855145  1.5661565435874227
C  -0.8039081822926039  4.438530085836536  0.6698636018420923
H  -1.2179428643527077  4.826171034958845  -0.13882042814097242
C  -2.4428942764154287  3.8482772878272686  4.128937711184099
H  -3.3311923716007055  4.317704721474889  3.678016424702763
H  -2.162235500364355  4.32667164664281  4.969556558819838
C  -2.710386704581421  2.26142780441387  4.254754815389833
C  -2.1475013801302594  1.262685154619045  4.92874373168719
H  -1.4937452948206484  1.4987117723658767  5.755048891194757
C  -2.3552233340683872  -0.06528485071881913  4.498193957254966
H  -1.7237728744824896  -0.9263670392916806  5.03465376071314
C  -3.3427703618092344  -0.45321797109995376  3.4660013771323652
C  -4.057235329502297  0.6429877742655205  2.9128546062375005
H  -4.842269758424924  0.4065808228375422  2.1768835535090374
C  -3.7389902823605934  1.923627737228461  3.2368785287164967
H  -4.2193306254460206  2.5714227020598424  2.5724569057878166
C  -3.192232791956723  -1.9869474887590761  3.234359470770694
H  -2.3819707058681927  -2.2234752673067844  3.9751175594846884
H  -4.248247029406708  -2.623733203558312  3.5627241903063775
Si  -0.6683661236954742  3.977778644720645  -5.458782464669745
Si  12.968700429105265  -1.060233159180564  5.308169777652772
O  0.10510401615275934  3.0819216947054664  -4.135863934471859
C  -0.19668912349640746  1.745630751980933  -3.7304192307601407
H  -0.23409964003987657  0.949221592821398  -4.554838623245083
H  -1.0729233084185676  1.4097277278308882  -3.2867328167560714
C  0.6678194129762216  0.8416119235224586  -2.7020422885402198
H  0.43976192041330187  -0.19531579273710303  -3.18316411431475
H  1.8304177537296686  1.2185186949622693  -2.8024091077536295
O  0.26567636859954663  1.1715423186173726  -1.3417182937526608
C  0.7034886228131374  0.46196162227587106  -0.01718759285284294
H  0.822304112517806  1.4146550208880577  0.6409248347689389
H  1.6508810041299344  0.11913142878130055  -0.1583035738428957
C  -0.3059028646779448  -0.6765091457905796  0.4257273090982391
H  -1.2386891807032407  -0.1516247211538475  0.6969438374842793
H  -0.36387089947911194  -1.2372867958633063  -0.6284104169698648
O  0.12427111952076843  -1.5954871473361403  1.5933692487480091
C  1.4744793522280404  -1.8484639837669732  1.6128612340478514
C  2.066194381060023  -3.103212332874931  1.2042210591369
H  1.3467458177198723  -3.8344088145690787  0.7403076582125518
C  3.3355046814635574  -3.6934412245622372  1.6601992442243125
H  3.567991309299267  -4.67401037041394  1.3728828828364756
C  4.043964139192213  -2.9231540425558435  2.400846472378476
H  5.036416013337129  -3.1508397705955398  2.902971518001263
C  3.5530463139370965  -1.575272478592885  2.767822406344579
C  2.382430376200754  -0.9836214999123412  2.4394893485516107
C  1.9969895877017947  0.3324051849378851  2.681395522994625
H  1.0451482742932792  0.5676217754125402  2.4237580365298985
C  2.868755741428721  1.1189372861852167  3.389885366282091
H  2.738623551824719  2.234394963894315  3.5623517617735034
C  4.238949562212882  0.5562648079211044  3.694691759853402
H  5.0068648402039075  1.2310336640268429  4.181752105258368
C  4.36409484843869  -0.7406204583112871  3.5368283627770456
O  5.554946369977418  -1.493567216746901  3.918894763630517
C  6.772567965831363  -1.124599895260429  3.412221771536709
H  6.57820402441741  -0.1023818383081311  2.8289333693635856
H  7.306380180677691  -1.67806502746319  2.5637163527632056
C  7.5934419804458395  -0.9461279861990775  4.661993559874772
H  7.242979177257498  -0.08767175997973958  5.072670526851936
H  7.525070125364831  -1.7250386133848676  5.232351281590492
O  8.971094657538726  -1.1231877307830922  4.335493585908483
C  9.596034428255091  -0.20357096181060627  3.500187260621548
H  9.624715012992251  0.7741754054540797  3.99902796962144
H  9.097296855769239  -0.01045408311682535  2.490729995673349
C  11.00934920185147  -0.3147728064986049  3.2172813520716717
H  11.212841990627574  -1.1120405403580031  2.5616872912602497
H  11.249378407048253  0.6166860016259673  2.540125634449552
O  11.88505856644301  -0.40149554418936356  4.208380262768491
C  -1.3600145556780041  2.7603384994720472  -6.803703298416159
H  -0.4623272738272443  2.36379150626755  -7.307846299081264
C  -2.1608555825322204  1.439822901829173  -6.167538341899733
H  -3.171241599975523  1.6516798312882737  -6.34968316191128
H  -1.9271931906290538  1.4740336354807007  -5.204220371544616
H  -1.7295659279508664  0.5970830214222778  -6.8666619918086464
C  -2.2511505359955275  3.5354190306387725  -7.797112382100146
H  -2.2188079124949787  2.8373288665431016  -8.698943257183007
H  -1.8674630493863213  4.593699068139829  -8.039483028983907
H  -3.262211193869341  3.8858479239934733  -7.711907351621841
C  0.936295842915595  4.946821441148392  -6.211135875083548
H  1.6367944554878964  4.219703673390127  -6.851561962425049
C  1.7963671054641588  5.306770118989219  -4.814613792863667
H  2.836577148461634  5.671780087238531  -4.942385756023385
H  1.8470502651415355  4.352371292199917  -4.253303499957309
H  1.6537508596265198  6.128285055330734  -4.21154055964179
C  0.7512367934979095  6.241832559161708  -7.010815084674331
H  0.5158750811189369  6.000682170934655  -7.920556610557821
H  1.751080384990948  6.76047699377711  -7.0665663586064085
H  0.01288419939291558  7.040692150518822  -6.698900327024759
C  -1.9767897346349192  5.132923397119982  -4.492834561467006
H  -2.5926856296554037  4.654276405333035  -3.6776574813044376
C  -1.3291275257468873  6.132645845468475  -3.720056072086731
H  -1.2143777542635255  7.163991580840049  -4.171434391082089
H  -0.2524675333563884  6.139605057951859  -3.583183716680258
H  -1.4294516615392545  6.2386170435871175  -2.62464936486915
C  -2.9713542222475353  5.958035497036227  -5.480677282865378
H  -4.05852069905595  6.049793152990097  -5.245350648140439
H  -2.6684699437178723  5.337269734965305  -6.3662517443531454
H  -2.4330347280470677  7.036471346076811  -5.535021828039369
C  13.360755173560918  0.2974373561719723  6.727325132362482
H  13.870462786415263  -0.19399591903267643  7.3970445201083885
C  14.192692907412738  1.5514569455395033  6.344029414817686
H  13.806376071419349  2.3472958173613536  5.970626333518909
H  15.061985294119072  1.3428437393920243  5.790659042246641
H  14.69648520627672  1.8378543755112684  7.33147835152252
C  12.184438566980875  0.5813465688357398  7.548791763782519
H  11.592441126989774  -0.4103394557205907  7.672920139849999
H  11.530867765156945  1.1630710333591998  7.146793311027589
H  12.626301622377174  1.013379938627805  8.437494555006712
C  14.52631003029855  -1.2647493552357942  4.443106208670639
H  14.596132495272442  -2.2653103800875227  3.8209383161239097
C  15.518695848875765  -1.4499250320006762  5.8124541127497285
H  15.256596323906097  -2.3203849448171456  6.444604405715676
H  15.596195257499696  -0.5857680182101308  6.376056382347485
H  16.479163582241664  -1.822869122332558  5.410691242499619
C  15.159158886244176  -0.29416214836655097  3.4328682040657252
H  15.901226974662718  0.5068848582071912  3.942310329788069
H  14.454531465481232  0.4936666873331987  2.969784768046673
H  15.64518046417387  -0.6398840062965548  2.5832874367483294
C  12.255318305091478  -2.754628042121409  5.738367869887522
H  12.418855029469206  -3.3924264975671896  4.830442122579644
C  10.783050682613954  -2.8474799011961465  6.197943417236747
H  10.624630930427681  -3.9674534798490924  6.182476258803668
H  10.073231219174044  -2.3177390106532147  5.57339103511238
H  10.824117286543286  -2.8003718678233644  7.362934266773147
C  12.907612688465312  -3.6896126782091985  6.834162024091309
H  12.273697867894697  -4.698643053357583  7.092895229092159
H  13.16725266103892  -3.3707120819981737  7.693817711451265
H  13.733897858555338  -4.176880582377789  6.406349350262256
P  1.4832480988088703  -7.050625518778141  0.7295609859982903
F  2.6491873231359286  -6.449431055181464  1.7007676676987047
F  2.003863667328407  -8.54935690567877  1.145509946273266
F  2.5605857411915682  -6.882058437959839  -0.4445586747879597
F  0.7171477358976088  -5.582051594318088  0.3609787584420468
F  0.28939885800944026  -7.391380780756651  1.7900523020768557
F  0.514247506094922  -7.6330538629066  -0.5612006135515119
P  1.5951538129907759  -0.7374661199710028  -8.203835924139531
F  0.4474433698179481  0.2999125745707506  -8.660378565869067
F  1.223031396143246  -1.7750653452101566  -9.350780623348559
F  0.5014702370278773  -1.4641244037266732  -7.281580139998423
F  1.8595024079601932  0.04567486911117097  -6.731099825595666
F  2.914334636611401  0.047363230632622794  -8.744684879256013
F  2.662150632242781  -1.9296774041587006  -7.613129113168337
P  -3.7103815889521945  2.746831707893162  -0.5998361365369869
F  -2.043009703440859  2.7406173604797215  -0.20026894022266767
F  -3.891935559684386  1.1017976172634174  -0.386185550299062
F  -3.135924554074883  2.607013421834788  -2.0920915628073478
F  -3.3948855675779814  4.351228599147872  -0.8881167394412327
F  -4.154330260453481  3.4164450998192692  0.8359487565085566
F  -5.171806838685262  2.898939094946426  -1.0233603423267585
P  1.446866577479244  5.036759678071361  6.638521205420818
F  -0.05713758108921294  5.3583527320923725  6.754074810168935
F  2.0010116148878963  6.532187146028844  6.614576303678887
F  1.3864440350214278  5.156743752381807  5.007590495477004
F  0.9360592784542813  3.545130131311386  6.262701271511183
F  1.4610307785586218  4.679140415799915  8.197048345718745
F  3.088126501432782  4.444899062615288  6.471937988526525
208
000 frame 55230 XYZ file generated by PYTHON code : coordinates in Angstrom
N  -2.990338239519755  -2.7428851618062016  1.9655227160113113
C  -3.828434458202495  -2.796227920650674  0.9140093096392978
H  -4.8596745122904474  -2.2922781214848764  0.7436788032707778
C  -3.458343098169572  -3.5440533651959676  -0.31672360784554915
H  -3.9604763995561543  -3.4703324452759463  -1.2044279563492886
C  -2.145349669407734  -3.815505127889663  -0.3962904623853703
C  -1.394485854543218  -4.062594952644819  0.8079597169598407
H  -0.4475169946729915  -4.689684389174699  0.7368480182939715
C  -1.8075125401252037  -3.476254569534194  1.9728123480138633
H  -1.251214891726489  -3.224493997570507  2.8199766627891614
C  -1.5007362714897248  -3.795731814339162  -1.740690203996851
C  -1.4272061875802295  -2.6899739689665423  -2.5429958375043498
H  -2.212979378152588  -1.9602328878411097  -2.4485435271842677
C  -0.463259475581235  -2.7950254927284086  -3.536642270854643
H  -0.39350295808394153  -2.1881770421818993  -4.4377393189250744
N  0.5239521546034516  -3.692986617871197  -3.429068504274347
C  0.5274722425292012  -4.568861840118592  -2.572805392832733
H  1.508817343838707  -5.034452986235069  -2.6442905701703863
C  -0.6387302326918335  -4.814568607376253  -1.7630036140200531
H  -0.5647038451722217  -5.767744736262121  -1.3353119982279653
C  2.040487728915873  -3.2675169830688016  -4.235329451776855
H  1.7105405032842929  -3.323476791180938  -5.302748381815349
H  2.575527810112103  -4.090491520624556  -4.212458358579705
C  2.7038763868101343  -2.0597306379029416  -3.781083844708895
C  3.1440690959399182  -1.0889727284405035  -4.74202252017395
H  2.9710284648883754  -1.516520927179215  -5.763356375959048
C  3.725948793707015  0.10291847115237507  -4.254422141264791
H  3.8100015428155607  1.0597868959128056  -4.67117627136067
C  4.03632901077492  0.19094437191644964  -2.8932482180616996
C  3.842452272850617  -0.7085063575060854  -1.998783064020655
H  3.7762876347186114  -0.4991767899261618  -0.823616038768293
C  3.358344607548796  -1.9931824297741207  -2.4941677205116393
H  3.7223320950029897  -2.7469795904334977  -1.7834211568537586
C  4.636675569829195  1.491495897272076  -2.6364621843997798
H  5.567756824320781  1.2686629357292813  -2.066177188258108
H  4.943072981687775  2.007554973458865  -3.5479624341756315
N  3.697021620489542  2.389626782614703  -1.6679866359856754
C  4.018722901271175  2.7188630182138467  -0.4727514906129016
H  4.923630204855466  2.3407882984961215  0.07758896643604513
C  3.032433147481596  3.3536482966644816  0.43863383538307155
H  3.5078153543522093  3.826539767374086  1.3852982649483727
C  1.645609266733356  3.6046081352485513  -0.011621285366435596
C  1.3508943109480682  3.399420983501046  -1.4097077620694358
H  0.3724670090441759  3.7055073463867565  -1.9276549087996067
C  2.591584014187142  2.994768877813181  -2.2176761015179887
H  2.455376833948994  3.0696143446511686  -3.3442729941818747
C  0.8650476495582311  3.7279145689032878  2.3180529043318563
H  1.785305702337644  3.5187521915483084  2.716564336306543
C  -0.12264946469810235  3.7862928611825626  3.2510941237472797
H  0.05802006785024582  3.826185017120451  4.262827166442171
N  -1.3602622695211644  4.030181869348006  2.8955116347608914
C  0.6462430914658629  3.9554014301710425  1.0567781491494113
C  -1.7437490214892548  4.494979953234187  1.6018596705565062
H  -2.7959219870167105  4.634832548534513  1.3217320037398765
C  -0.7935274979222501  4.464465937293184  0.7566685804899788
H  -1.2722515593333426  4.708770784621166  -0.30762921197539306
C  -2.430645586604042  3.86712732593005  4.083669984922609
H  -3.440755816028805  4.101248814750628  3.788019538037298
H  -1.852189121517042  4.431125972436804  4.941437701301906
C  -2.714605638602068  2.262751284293626  4.207228489381914
C  -2.151393450945948  1.237182106576451  4.945508224797094
H  -1.4143896997160597  1.3334283695099012  5.752219678336596
C  -2.383670765526996  -0.07714045625229482  4.471592163388182
H  -1.9417076297737663  -0.7570133915809659  5.005541598558077
C  -3.315727526748535  -0.45531527835680097  3.5265890203501025
C  -4.1141305338762235  0.6463857857355338  2.9160103354165807
H  -4.72661161040642  0.42542716634547956  2.055343982865927
C  -3.736379026228893  1.943390371669623  3.290270171118659
H  -3.9605017219788183  2.7991817816712588  2.6178714319296024
C  -3.23028546862204  -1.9936951213095018  3.322842200928964
H  -2.342310724048006  -2.232773600433015  3.8212042559510575
H  -3.9505115259883583  -2.5738994708805416  3.6067012740046134
Si  -0.6828344977560373  3.9837968903968695  -5.526550408086581
Si  12.948272300454311  -1.0508318673531993  5.240258428972373
O  0.11587014592096977  3.051726558358465  -4.111944188500034
C  -0.2893020775946035  1.6829234239997557  -3.749676980875914
H  -0.0727974291293793  1.1511277228637822  -4.67445025062656
H  -1.3273017023902083  1.492386390804946  -3.2792335542773436
C  0.6763850874216513  0.8429835096809096  -2.7191535654407253
H  0.6449909307959508  -0.19872447842471092  -2.978127941724673
H  1.6138774029172391  0.9363258913876681  -2.817285123321837
O  0.3304876792318057  1.1222216404237078  -1.332750698595788
C  0.6884227478465447  0.5003634361976074  -0.07351468135474797
H  0.5268916576367992  1.2807518068492103  0.5381157119170066
H  1.808891336786802  0.16238080202683428  0.017905806732288303
C  -0.2990087450971186  -0.6751594583606102  0.33357395083847013
H  -1.182757229598182  -0.13952036350541472  0.6025959089383387
H  -0.30626221350521  -1.424192031134816  -0.37358634342760527
O  0.07628820409143601  -1.58555097396338  1.5722403549354143
C  1.4772127283320189  -1.8796253047241556  1.6418022403298065
C  2.0647313871025106  -3.0175427512613187  1.187031534383555
H  1.6113975959894515  -3.7502962353403513  0.649188824650387
C  3.2259155012636818  -3.6619065952942633  1.6929240174375308
H  3.3533619042839833  -4.668235507454448  1.278315685954949
C  4.122308398283118  -2.8462521402842205  2.412621103911197
H  5.017483067842067  -3.257640631056668  2.718217143083
C  3.4749757703078994  -1.494038723193024  2.805738172880838
C  2.365707166076791  -1.007193133481787  2.3294612030902884
C  2.0496248272144872  0.31503438401140754  2.6805010203715844
H  1.048137663763849  0.8595685026189319  2.5500444480310644
C  2.8826200895738268  1.0711733829607237  3.2997998565033826
H  2.5073908438254597  1.9238054201586854  3.729116277328442
C  4.241185602368647  0.5531591308793863  3.7050968268527713
H  4.847719848823243  1.2041140829082537  4.205473250425911
C  4.3859084649657385  -0.7499681215187893  3.583666887700134
O  5.510897544797229  -1.4932542199600924  3.8240484035408646
C  6.791109104184087  -1.1401010650617978  3.373311088427532
H  6.498460412340689  -0.37721502449174044  2.8155309126183634
H  7.326539390855636  -1.8675232426717931  2.735367495704936
C  7.5787476648638314  -0.9728049355887433  4.587248712881651
H  7.468046015290905  0.08777801442083843  5.110656849528031
H  7.329365844811987  -1.9192108489498074  5.316916641569593
O  8.963680731907207  -1.162798883011626  4.322955287708584
C  9.56410149939421  -0.14351422301586395  3.5027214864641243
H  9.653447166716894  0.7544847156934913  4.08231354984955
H  9.020207499374974  -0.054644212456110536  2.6179990354619456
C  11.064941244886068  -0.3675756519502642  3.157314143261245
H  10.920100608422228  -1.4229103458710977  2.7090191424999004
H  11.04401752811068  0.559245567239147  2.6610474606960945
O  11.98878098756925  -0.36963280008887867  4.246115218308656
C  -1.2773106313115856  2.7786285330796727  -6.740925260772264
H  -0.3750319966732105  2.4711362936159693  -7.275868304273446
C  -2.133169946785339  1.465704616328088  -6.185776823296119
H  -3.2301435591865535  1.6237762638416076  -6.4383550196457335
H  -2.135465011903514  1.3243109427918698  -5.0129876265991244
H  -1.7910676086977018  0.6686346772008877  -6.886872194515735
C  -2.2260269904429086  3.6200557492867547  -7.810837330063987
H  -2.4061004722103085  2.8776697689178907  -8.547960910552849
H  -1.816285951047002  4.503511496283623  -8.273910889625533
H  -3.2954446718703743  3.8033413592889134  -7.46943094666009
C  0.9554298193450371  5.026605964567251  -6.090067102780969
H  1.6501907402335732  4.403889534777285  -6.63818925329368
C  1.8555869242729661  5.2409848141418145  -4.752443819056323
H  2.9870951662970997  5.466968868763559  -4.928012964082071
H  1.6485089591122544  4.469114492177933  -4.060665462667314
H  1.5226076619642621  6.29047964485887  -4.330691863896096
C  0.7804120401500588  6.304347725300137  -6.974374412932606
H  0.04395529665164507  5.9869888888668354  -7.984446230882568
H  1.638746113349619  6.877451253651367  -7.265761062008289
H  0.03445088537444106  7.029059198134605  -6.8214722455675885
C  -2.0701274000825647  5.144003182792722  -4.437075223600248
H  -2.5301636513424794  4.4800524245914595  -3.744170412411228
C  -1.2677672386635246  6.1016642470891576  -3.6944182341979532
H  -1.3556185534664218  7.130389155506602  -3.973600477544465
H  -0.21818437826017556  5.753682074954873  -3.750652654527392
H  -1.67817235671312  6.257609067065394  -2.6528370905021514
C  -2.966044794028421  5.897111168838062  -5.374782877801373
H  -3.9905842877837876  6.023644090076819  -4.999787597214046
H  -2.862930778495919  5.453023731327035  -6.3233601935017925
H  -2.463466555412112  6.795272203812196  -5.640175534565671
C  13.404518291035659  0.27597973181903057  6.7069422164072945
H  14.157995619064227  -0.1402666531260004  7.594067964595415
C  14.206090106210054  1.5514159576055269  6.414442837819146
H  13.397055840934529  2.4244576616188764  5.863982637126131
H  15.122147711700817  1.2820926927663812  5.820736885159305
H  14.57231547556131  2.0449860154027086  7.318096159056797
C  12.167467749404798  0.5301849599901343  7.585342903436074
H  11.478379517330827  -0.22222123112427425  7.819018639141528
H  11.36169371368468  1.2243679156652576  6.932799205410884
H  12.396136275478801  1.1174416362510469  8.486494490245944
C  14.549403510150816  -1.3317345560285039  4.413114913718241
H  14.66459999142182  -2.234508555389228  3.9874577322169555
C  15.530554292853733  -1.4354849239786045  5.86353779309007
H  14.99439119523164  -2.157132522515871  6.462943365795675
H  15.77367216706233  -0.5319389607922589  6.498087104621637
H  16.54344243176912  -1.7865491344448245  5.649426368276621
C  15.206741671665892  -0.28234927650674313  3.4783307565030994
H  15.789818688011948  0.6678405593278574  3.8763463827757016
H  14.6402565308206  0.30685407310249146  2.8082638521970558
H  15.926163523678072  -0.7657652203440004  2.6682547163692707
C  12.316092354772191  -2.7093817797131075  5.72795186536023
H  12.108291260323822  -3.2567683780328034  4.8232659679665835
C  10.8159312447714  -2.7822586081164538  6.108500445962451
H  10.496866557053194  -3.832197680084548  6.107452276794379
H  10.034773149940806  -2.202483315314443  5.6028140023934965
H  10.664435641777937  -2.5666849793567033  7.115257575265491
C  12.90173426055607  -3.7167145524507235  6.8602290262014165
H  12.198224014000374  -4.411113187306628  7.051647356191456
H  13.081454608296806  -3.184058190789162  7.985500600891101
H  13.864142616948909  -4.218650845748756  6.429995821051058
P  1.5164510494858183  -7.1115904398816845  0.6661050824845131
F  2.6139532906284417  -6.443043540511641  1.717678492067399
F  2.0706453264527522  -8.559649470149488  1.130124057295659
F  2.6159027625901223  -6.910155704648676  -0.4609689579965306
F  0.7257377200897686  -5.593866439812168  0.3651461671873118
F  0.28437048743763144  -7.267787978992925  1.7883693349761107
F  0.557852264852418  -7.632745944779954  -0.5671614896274191
P  1.6169446835292534  -0.7177670925849211  -8.156315347687869
F  0.5104146241644181  0.36314745904849854  -8.687188871768305
F  1.1910204044605643  -1.814457124736481  -9.327770362900818
F  0.47151873748053447  -1.451972154647592  -7.187036338389752
F  1.8347192994183947  0.1192822118628495  -6.720381655735989
F  2.8861878557288194  0.06402857527293  -8.77058465038688
F  2.6452422864884264  -1.950788970183462  -7.537281307391791
P  -3.704194002688421  2.7738647098873717  -0.6085427369974574
F  -2.0937216043450104  2.7149310154816555  -0.2387231132169738
F  -3.9257724183036053  1.1165651504687597  -0.3856273231923127
F  -3.0209584591979532  2.603964276280372  -2.13084608317582
F  -3.4263730605250777  4.427116074924347  -0.8919825537100446
F  -4.1123715660767095  3.427831266002819  0.8221178296421734
F  -5.236568401491824  2.9069995485213926  -1.0609227494840447
P  1.4346992963648006  5.006037255544401  6.644989542149846
F  -0.0352028860490914  5.395439607313255  6.866512827199214
F  2.008825303301095  6.5480992400562705  6.566763107647088
F  1.398433902989102  5.171745096764968  4.972801827299344
F  0.9797751949631787  3.4739878685138295  6.231384741635813
F  1.4929088885097366  4.678484936506107  8.193618857754327
F  3.0384668477682855  4.473713126324853  6.432540545940581
